$ MSC.Nastran input file created on November  28, 2021 at 18:53:07 by
$ Patran 2021.1  (Student Edition)
$ Direct Text Input for Nastran System Cell Section
$ Direct Text Input for File Management Section
$ Direct Text Input for Executive Control
$ Linear Static Analysis, Database
SOL 101
CEND
$ Direct Text Input for Global Case Control Data
TITLE = MSC.Nastran job created on 28-Nov-21 at 17:19:30
ECHO = NONE
   BCONTACT = 0
SUBCASE 1
   SUBTITLE=Default
   NLSTEP = 1
   BCONTACT = 1
   SPC = 2
   LOAD = 2
   DISPLACEMENT(SORT1,REAL)=ALL
   SPCFORCES(SORT1,REAL)=ALL
   STRESS(SORT1,REAL,VONMISES,BILIN)=ALL
   BOUTPUT(SORT1,REAL)=ALL
$ Direct Text Input for this Subcase
BEGIN BULK
$ Direct Text Input for Bulk Data
PARAM    POST    0
PARAM   PRTMAXIM YES
BCPARA   0       NLGLUE  0
NLSTEP   1
BCTABL1  0       8001    8002    8003    8004    8005    8006    8007
         8008    8009    8010
BCONECT  8001    3001            1       1
BCONECT  8002    3002            2       1
BCONECT  8003    3003            3       1
BCONECT  8004    3004            4       1
BCONECT  8005    3005            2       2
BCONECT  8006    3006            3       2
BCONECT  8007    3007            4       2
BCONECT  8008    3008            3       3
BCONECT  8009    3009            4       3
BCONECT  8010    3010            4       4
BCONPRG  3001            ERROR   10.     IGLUE   4       ISEARCH 2
BCONPRG  3002            ERROR   10.     IGLUE   4       ISEARCH 2
BCONPRG  3003            ERROR   10.     IGLUE   4       ISEARCH 2
BCONPRG  3004            ERROR   10.     IGLUE   4       ISEARCH 2
BCONPRG  3005            ERROR   10.     IGLUE   4       ISEARCH 2
BCONPRG  3006            ERROR   10.     IGLUE   4       ISEARCH 2
BCONPRG  3007            ERROR   10.     IGLUE   4       ISEARCH 2
BCONPRG  3008            ERROR   10.     IGLUE   4       ISEARCH 2
BCONPRG  3009            ERROR   10.     IGLUE   4       ISEARCH 2
BCONPRG  3010            ERROR   10.     IGLUE   4       ISEARCH 2
BCTABL1  1       8001    8002    8003    8004    8005    8006    8007
         8008    8009    8010
$ Elements and Element Properties for region : Shell_Ten10
$ Composite Property Reference Material: Laminate_Tension_10
$ Composite Material Description :
PCOMP    1                      .0879359 HILL
         1       .2      0.      YES     1       .2      0.      YES
         1       .2      0.      YES     1       .2      0.      YES
         1       .2      0.      YES     1       .2      0.      YES
         1       .2      0.      YES     1       .2      0.      YES
         1       .2      0.      YES
$ Pset: "Shell_Ten10" will be imported as: "pcomp.1"
CQUAD4   5000    1       5000    5001    5033    5032
CQUAD4   5001    1       5001    5002    5034    5033
CQUAD4   5002    1       5002    5003    5035    5034
CQUAD4   5003    1       5003    5004    5036    5035
CQUAD4   5004    1       5004    5005    5037    5036
CQUAD4   5005    1       5005    5006    5038    5037
CQUAD4   5006    1       5006    5007    5039    5038
CQUAD4   5007    1       5007    5008    5040    5039
CQUAD4   5008    1       5008    5009    5041    5040
CQUAD4   5009    1       5009    5010    5042    5041
CQUAD4   5010    1       5010    5011    5043    5042
CQUAD4   5011    1       5011    5012    5044    5043
CQUAD4   5012    1       5012    5013    5045    5044
CQUAD4   5013    1       5013    5014    5046    5045
CQUAD4   5014    1       5014    5015    5047    5046
CTRIA3   5015    1       5015    5048    5047
CQUAD4   5016    1       5015    5016    5049    5048
CQUAD4   5017    1       5016    5017    5050    5049
CQUAD4   5018    1       5017    5018    5051    5050
CQUAD4   5019    1       5018    5019    5052    5051
CQUAD4   5020    1       5019    5020    5053    5052
CQUAD4   5021    1       5020    5021    5054    5053
CQUAD4   5022    1       5021    5022    5055    5054
CQUAD4   5023    1       5022    5023    5056    5055
CQUAD4   5024    1       5023    5024    5057    5056
CQUAD4   5025    1       5024    5025    5058    5057
CQUAD4   5026    1       5025    5026    5059    5058
CQUAD4   5027    1       5026    5027    5060    5059
CQUAD4   5028    1       5027    5028    5061    5060
CQUAD4   5029    1       5028    5029    5062    5061
CQUAD4   5030    1       5029    5030    5063    5062
CQUAD4   5031    1       5030    5031    5064    5063
CQUAD4   5032    1       5031    5066    5098    5064
CQUAD4   5033    1       5066    5067    5099    5098
CQUAD4   5034    1       5067    5068    5100    5099
CQUAD4   5035    1       5068    5069    5101    5100
$ ... 11 like lines cut
CTRIA3   5047    1       5080    5113    5112
CQUAD4   5048    1       5080    5081    5114    5113
CQUAD4   5049    1       5081    5082    5115    5114
CQUAD4   5050    1       5082    5083    5116    5115
CQUAD4   5051    1       5083    5084    5117    5116
CQUAD4   5052    1       5084    5085    5118    5117
CQUAD4   5053    1       5085    5086    5119    5118
CQUAD4   5054    1       5086    5087    5120    5119
CQUAD4   5055    1       5087    5088    5121    5120
CQUAD4   5056    1       5088    5089    5122    5121
CQUAD4   5057    1       5089    5090    5123    5122
CQUAD4   5058    1       5090    5091    5124    5123
CQUAD4   5059    1       5091    5092    5125    5124
CQUAD4   5060    1       5092    5093    5126    5125
CQUAD4   5061    1       5093    5094    5127    5126
CQUAD4   5062    1       5094    5095    5128    5127
CQUAD4   5063    1       5095    5000    5032    5128
CQUAD4   5064    1       5130    5131    5144    5143
CQUAD4   5065    1       5131    5132    5145    5144
CQUAD4   5066    1       5132    5133    5146    5145
CQUAD4   5067    1       5133    5134    5147    5146
CQUAD4   5068    1       5134    5135    5148    5147
CQUAD4   5069    1       5135    5136    5149    5148
CTRIA3   5070    1       5136    5150    5149
CQUAD4   5071    1       5136    5137    5151    5150
CQUAD4   5072    1       5137    5138    5152    5151
CQUAD4   5073    1       5138    5139    5153    5152
CQUAD4   5074    1       5139    5140    5154    5153
CQUAD4   5075    1       5140    5141    5155    5154
CQUAD4   5076    1       5141    5142    5156    5155
CQUAD4   5077    1       5157    5158    5224    5223
CQUAD4   5078    1       5158    5159    5225    5224
CQUAD4   5079    1       5159    5160    5226    5225
CQUAD4   5080    1       5160    5161    5227    5226
CQUAD4   5081    1       5161    5162    5228    5227
CQUAD4   5082    1       5162    5163    5229    5228
CQUAD4   5083    1       5163    5164    5230    5229
CQUAD4   5084    1       5164    5165    5231    5230
CQUAD4   5085    1       5165    5166    5232    5231
CQUAD4   5086    1       5166    5167    5233    5232
CQUAD4   5087    1       5167    5168    5234    5233
CQUAD4   5088    1       5168    5169    5235    5234
CQUAD4   5089    1       5169    5170    5236    5235
CQUAD4   5090    1       5170    5171    5237    5236
$ ... 18 like lines cut
CTRIA3   5109    1       5189    5256    5255
CQUAD4   5110    1       5189    5190    5257    5256
CQUAD4   5111    1       5190    5191    5258    5257
CQUAD4   5112    1       5191    5192    5259    5258
CQUAD4   5113    1       5192    5193    5260    5259
CQUAD4   5114    1       5193    5194    5261    5260
CQUAD4   5115    1       5194    5195    5262    5261
CQUAD4   5116    1       5195    5196    5263    5262
CQUAD4   5117    1       5196    5197    5264    5263
CQUAD4   5118    1       5197    5198    5265    5264
CQUAD4   5119    1       5198    5199    5266    5265
CQUAD4   5120    1       5199    5200    5267    5266
CQUAD4   5121    1       5200    5201    5268    5267
CQUAD4   5122    1       5201    5202    5269    5268
CQUAD4   5123    1       5202    5203    5270    5269
CQUAD4   5124    1       5203    5204    5271    5270
CQUAD4   5125    1       5204    5205    5272    5271
CQUAD4   5126    1       5205    5206    5273    5272
CQUAD4   5127    1       5206    5207    5274    5273
CQUAD4   5128    1       5207    5208    5275    5274
CQUAD4   5129    1       5208    5209    5276    5275
$ ... 45 like lines cut
CTRIA3   5175    1       5322    5389    5388
CQUAD4   5176    1       5322    5323    5390    5389
CQUAD4   5177    1       5323    5324    5391    5390
CQUAD4   5178    1       5324    5325    5392    5391
CQUAD4   5179    1       5325    5326    5393    5392
CQUAD4   5180    1       5326    5327    5394    5393
CQUAD4   5181    1       5327    5328    5395    5394
CQUAD4   5182    1       5328    5329    5396    5395
CQUAD4   5183    1       5329    5330    5397    5396
CQUAD4   5184    1       5330    5331    5398    5397
CQUAD4   5185    1       5331    5332    5399    5398
CQUAD4   5186    1       5332    5333    5400    5399
CQUAD4   5187    1       5333    5334    5401    5400
CQUAD4   5188    1       5334    5335    5402    5401
CQUAD4   5189    1       5335    5336    5403    5402
CQUAD4   5190    1       5336    5337    5404    5403
CQUAD4   5191    1       5337    5338    5405    5404
CQUAD4   5192    1       5338    5339    5406    5405
CQUAD4   5193    1       5339    5340    5407    5406
CQUAD4   5194    1       5340    5341    5408    5407
CQUAD4   5195    1       5341    5342    5409    5408
$ ... 19 like lines cut
CTRIA3   5215    1       5429    5443    5442
CQUAD4   5216    1       5429    5430    5444    5443
CQUAD4   5217    1       5430    5431    5445    5444
CQUAD4   5218    1       5431    5432    5446    5445
CQUAD4   5219    1       5432    5433    5447    5446
CQUAD4   5220    1       5433    5434    5448    5447
CQUAD4   5221    1       5434    5157    5223    5448
$ Elements and Element Properties for region : SHell_Com10
$ Composite Property Reference Material: Laminate_Compresson_10
$ Composite Material Description :
PCOMP    2                      .0879359 HILL
         2       .2      0.      YES     2       .2      0.      YES
         2       .2      0.      YES     2       .2      0.      YES
         2       .2      0.      YES     2       .2      0.      YES
         2       .2      0.      YES     2       .2      0.      YES
         2       .2      0.      YES
$ Pset: "SHell_Com10" will be imported as: "pcomp.2"
CQUAD4   1       2       1       2       24      23
CQUAD4   2       2       2       3       25      24
CQUAD4   3       2       3       4       26      25
CQUAD4   4       2       4       5       27      26
CQUAD4   5       2       5       6       28      27
CQUAD4   6       2       6       7       29      28
CQUAD4   7       2       7       8       30      29
CQUAD4   8       2       8       9       31      30
CQUAD4   9       2       9       10      32      31
CQUAD4   10      2       10      11      33      32
CQUAD4   11      2       11      12      34      33
CQUAD4   12      2       12      13      35      34
CQUAD4   13      2       13      14      36      35
CQUAD4   14      2       14      15      37      36
CQUAD4   15      2       15      16      38      37
CQUAD4   16      2       16      17      39      38
CQUAD4   17      2       17      18      40      39
CQUAD4   18      2       18      19      41      40
CQUAD4   19      2       19      20      42      41
CQUAD4   20      2       20      21      43      42
$ ... 1484 like lines cut
$ Referenced Material Records
$ Material Record : Plie_Tension
$ Description of Material : Date: 24-Nov-21           Time: 12:36:33
MAT8*    1               158.48907       8.9490538       .3156111
*        4.6487918       4.6487918       4.6487918       1.58
*                                                        2.2330778
*        1.4179074       .0463331        .2547264        .0879359
$ Material Record : Plie_Compression
$ Description of Material : Date: 24-Nov-21           Time: 12:36:33
MAT8*    2               140.93211       9.712304        .3563333
*        4.6487918       4.6487918       4.6487918       1.58
*                                                        2.2330778
*        1.4179074       .0463331        .2547264        .0879359
$ Multipoint Constraints of the Entire Model
$ ID conflict : the PATRAN MPC ID was 1
RBE2     7464    10000   3       1       23      137     159     273
         295     409     431     545     567     681     703     817
         839     953     975     5143    5144    5145    5146    5147
         5148    5149    5150    5151    5152    5153    5154    5155
         5156    5223    5224    5225    5226    5227    5228    5229
         5230    5231    5232    5233    5234    5235    5236    5237
         5238    5239    5240    5241    5242    5243    5244    5245
         5246    5247    5248    5249    5250    5251    5252    5253
         5254    5255    5256    5257    5258    5259    5260    5261
         5262    5263    5264    5265    5266    5267    5268    5269
         5270    5271    5272    5273    5274    5275    5276    5277
         5278    5279    5280    5281    5282    5283    5284    5285
         5286    5287    5288    5357    5358    5359    5360    5361
         5362    5363    5364    5365    5366    5367    5368    5369
         5370    5371    5372    5373    5374    5375    5376    5377
         5378    5379    5380    5381    5382    5383    5384    5385
         5386    5387    5388    5389    5390    5391    5392    5393
         5394    5395    5396    5397    5398    5399    5400    5401
         5402    5403    5404    5405    5406    5407    5408    5409
         5410    5411    5412    5413    5414    5415    5416    5417
         5418    5419    5420    5421    5422    5437    5438    5439
$ ... 4 like lines cut
$ ID conflict : the PATRAN MPC ID was 2
RBE2     7465    10001   3       93      136     229     272     365
         408     501     544     637     680     773     816     909
         952     1045    1088    5000    5001    5002    5003    5004
         5005    5006    5007    5008    5009    5010    5011    5012
         5013    5014    5015    5016    5017    5018    5019    5020
         5021    5022    5023    5024    5025    5026    5027    5028
         5029    5030    5031    5066    5067    5068    5069    5070
         5071    5072    5073    5074    5075    5076    5077    5078
         5079    5080    5081    5082    5083    5084    5085    5086
         5087    5088    5089    5090    5091    5092    5093    5094
         5095    7058    7117    7176    7235    7294    7353    7412
         7471    7530    7589    7648    7707    7766    7825    7884
         7943
$ Nodes of the Entire Model
GRID*    1                              124.986587524414-1.8309508562088
*       -6.9960022205-14
GRID*    2                              123.927864074707.937436103820801
*       3.98936605453491
GRID*    3                              122.8048629760743.66282510757446
*       7.99106407165527
GRID*    4                              121.6191787719736.34389781951904
*        12.00390625
GRID*    5                              120.3719635009778.98023986816406
*       16.0282859802246
GRID*    6                              119.06474304199211.5704364776611
*        20.063304901123
GRID*    7                              117.69878387451214.1135225296021
*       24.1089611053467
GRID*    8                              116.27544403076216.6082057952881
*       28.1649303436279
GRID*    9                              114.79608917236319.0531787872314
*       32.2310371398926
GRID*    10                             113.261985778809 21.447193145752
*       36.3073921203613
GRID*    11                             111.67469024658223.7885761260986
*       40.3935661315918
GRID*    12                              110.0354766845726.0760841369629
*       44.4900588989258
GRID*    13                             108.34603118896528.3079242706299
*       48.5966415405273
GRID*    14                             106.60787200927730.4825992584229
*       52.7136840820313
GRID*    15                             104.82272338867232.5984382629395
*       56.8412475585938
GRID*    16                             102.99240112304734.6537971496582
*       60.9794769287109
GRID*    17                             101.11869049072336.6471824645996
*       65.1287460327148
GRID*    18                             99.203628540039138.5769577026367
*       69.2889862060547
GRID*    19                             97.249069213867240.4418449401855
*       73.4606475830078
GRID*    20                             95.257141113281342.2404174804688
*       77.6435852050781
$ ... 6884 like lines cut
GRID     10000           0.      0.      -50.
GRID     10001           0.      0.      330.
$ Loads for Load Case : Default
SPCADD   2       1       3
LOAD     2       1.      1.      1       1.      3
$ Displacement Constraints of Load Set : MPC_3
SPC1     1       3       10000
$ Displacement Constraints of Load Set : Point_12456
SPC1     3       12456   5223
$ Deform Body Contact LBC set: H1C
BCBODY1  1               3D      DEFORM  1
BSURF    1       1       2       3       4       5       6       7
         8       9       10      11      12      13      14      15
         16      17      18      19      20      21      22      23
         24      25      26      27      28      29      30      31
         32      33      34      35      36      37      38      39
         40      41      42      43      44      45      46      47
         48      49      50      51      52      53      54      55
         56      57      58      59      60      61      62      63
         64      65      66      67      68      69      70      71
         72      73      74      75      76      77      78      79
         80      81      82      83      84      85      86      87
         88      89      90      91      92      93      94      95
         96      97      98      99      100     101     102     103
         104     105     106     107     108     109     110     111
         112     113     114     115     116     117     118     119
         120     121     122     123     124     125     126     127
         128     129     130     131     132     133     134     135
         136     137     138     139     140     141     142     143
         144     145     146     147     148     149     150     151
         152     153     154     155     156     157     158     159
         160     161     162     163     164     165     166     167
$ ... 45 like lines cut
$ Deform Body Contact LBC set: H2C
BCBODY1  2               3D      DEFORM  2
BSURF    2       2000    2001    2002    2003    2004    2005    2006
         2007    2008    2009    2010    2011    2012    2013    2014
         2015    2016    2017    2018    2019    2020    2021    2022
         2023    2024    2025    2026    2027    2028    2029    2030
         2031    2032    2033    2034    2035    2036    2037    2038
         2039    2040    2041    2042    2043    2044    2045    2046
         2047    2048    2049    2050    2051    2052    2053    2054
         2055    2056    2057    2058    2059    2060    2061    2062
         2063    2064    2065    2066    2067    2068    2069    2070
         2071    2072    2073    2074    2075    2076    2077    2078
         2079    2080    2081    2082    2083    2084    2085    2086
         2087    2088    2089    2090    2091    2092    2093    2094
         2095    2096    2097    2098    2099    2100    2101    2102
         2103    2104    2105    2106    2107    2108    2109    2110
         2111    2112    2113    2114    2115    2116    2117    2118
         2119    2120    2121    2122    2123    2124    2125    2126
         2127    2128    2129    2130    2131    2132    2133    2134
         2135    2136    2137    2138    2139    2140    2141    2142
         2143    2144    2145    2146    2147    2148    2149    2150
         2151    2152    2153    2154    2155    2156    2157    2158
         2159    2160    2161    2162    2163    2164    2165    2166
$ ... 45 like lines cut
$ Deform Body Contact LBC set: RFC
BCBODY1  3               3D      DEFORM  3
BSURF    3       5000    5001    5002    5003    5004    5005    5006
         5007    5008    5009    5010    5011    5012    5013    5014
         5015    5016    5017    5018    5019    5020    5021    5022
         5023    5024    5025    5026    5027    5028    5029    5030
         5031    5032    5033    5034    5035    5036    5037    5038
         5039    5040    5041    5042    5043    5044    5045    5046
         5047    5048    5049    5050    5051    5052    5053    5054
         5055    5056    5057    5058    5059    5060    5061    5062
         5063    5064    5065    5066    5067    5068    5069    5070
         5071    5072    5073    5074    5075    5076    5077    5078
         5079    5080    5081    5082    5083    5084    5085    5086
         5087    5088    5089    5090    5091    5092    5093    5094
         5095    5096    5097    5098    5099    5100    5101    5102
         5103    5104    5105    5106    5107    5108    5109    5110
         5111    5112    5113    5114    5115    5116    5117    5118
         5119    5120    5121    5122    5123    5124    5125    5126
         5127    5128    5129    5130    5131    5132    5133    5134
         5135    5136    5137    5138    5139    5140    5141    5142
         5143    5144    5145    5146    5147    5148    5149    5150
         5151    5152    5153    5154    5155    5156    5157    5158
         5159    5160    5161    5162    5163    5164    5165    5166
$ ... 7 like lines cut
$ Deform Body Contact LBC set: VC
BCBODY1  4               3D      DEFORM  4
BSURF    4       7000    7001    7002    7003    7004    7005    7006
         7007    7008    7009    7010    7011    7012    7013    7014
         7015    7016    7017    7018    7019    7020    7021    7022
         7023    7024    7025    7026    7027    7028    7029    7030
         7031    7032    7033    7034    7035    7036    7037    7038
         7039    7040    7041    7042    7043    7044    7045    7046
         7047    7048    7049    7050    7051    7052    7053    7054
         7055    7056    7057    7058    7059    7060    7061    7062
         7063    7064    7065    7066    7067    7068    7069    7070
         7071    7072    7073    7074    7075    7076    7077    7078
         7079    7080    7081    7082    7083    7084    7085    7086
         7087    7088    7089    7090    7091    7092    7093    7094
         7095    7096    7097    7098    7099    7100    7101    7102
         7103    7104    7105    7106    7107    7108    7109    7110
         7111    7112    7113    7114    7115    7116    7117    7118
         7119    7120    7121    7122    7123    7124    7125    7126
         7127    7128    7129    7130    7131    7132    7133    7134
         7135    7136    7137    7138    7139    7140    7141    7142
         7143    7144    7145    7146    7147    7148    7149    7150
         7151    7152    7153    7154    7155    7156    7157    7158
         7159    7160    7161    7162    7163    7164    7165    7166
$ ... 38 like lines cut
$ Nodal Forces of Load Set : L
FORCE    1       10001   0       15.     0.      0.      -1.
$ Nodal Forces of Load Set : L
MOMENT   3       10001   0       0.      .57735  .57735  .57735
$ Referenced Coordinate Frames
ENDDATA 88f0f0d3
