$ MSC.Nastran input file created on November  27, 2021 at 17:28:07 by
$ Patran 2021.1  (Student Edition)
$ Direct Text Input for Nastran System Cell Section
$ Direct Text Input for File Management Section
$ Direct Text Input for Executive Control
$ Linear Static Analysis, Database
SOL 101
CEND
$ Direct Text Input for Global Case Control Data
TITLE = MSC.Nastran job created on 27-Nov-21 at 14:15:59
ECHO = NONE
   BCONTACT = 0
   BCONCHK = RUN
SUBCASE 1
   SUBTITLE=LC
   NLSTEP = 1
   BCONTACT = 1
   SPC = 2
   LOAD = 2
   DISPLACEMENT(SORT1,REAL)=ALL
   SPCFORCES(SORT1,REAL)=ALL
   STRESS(SORT1,REAL,VONMISES,BILIN)=ALL
   BOUTPUT(SORT1,REAL)=ALL
$ Direct Text Input for this Subcase
BEGIN BULK
$ Direct Text Input for Bulk Data
MDLPRM   HDF5    1
PARAM    POST    0
PARAM   PRTMAXIM YES
BCPARA   0       NLGLUE  0
NLSTEP   1
BCTABL1  0       8001    8002    8003    8004    8005    8006
BCONECT  8001    3001            2       1
BCONECT  8002    3002            3       1
BCONECT  8003    3003            4       1
BCONECT  8004    3004            3       2
BCONECT  8005    3005            4       2
BCONECT  8006    3006            4       3
BCONPRG  3001            ERROR   10.     IGLUE   4       ISEARCH 2
BCONPRG  3002            ERROR   10.     IGLUE   4       ISEARCH 2
BCONPRG  3003            ERROR   10.     IGLUE   4       ISEARCH 2
BCONPRG  3004            ERROR   10.     IGLUE   4       ISEARCH 2
BCONPRG  3005            ERROR   10.     IGLUE   4       ISEARCH 2
BCONPRG  3006            ERROR   10.     IGLUE   4       ISEARCH 2
BCTABL1  1       8001    8002    8003    8004    8005    8006
$ Elements and Element Properties for region : Shell_Al
PSHELL   1       1       2.      1               1
$ Pset: "Shell_Al" will be imported as: "pshell.1"
CQUAD4   1       1       1       2       61      60
CQUAD4   2       1       2       3       62      61
CQUAD4   3       1       3       4       63      62
CQUAD4   4       1       4       5       64      63
CQUAD4   5       1       5       6       65      64
CQUAD4   6       1       6       7       66      65
CQUAD4   7       1       7       8       67      66
CQUAD4   8       1       8       9       68      67
CQUAD4   9       1       9       10      69      68
CQUAD4   10      1       10      11      70      69
CQUAD4   11      1       11      12      71      70
CQUAD4   12      1       12      13      72      71
CQUAD4   13      1       13      14      73      72
CQUAD4   14      1       14      15      74      73
CQUAD4   15      1       15      16      75      74
CQUAD4   16      1       16      17      76      75
CQUAD4   17      1       17      18      77      76
CQUAD4   18      1       18      19      78      77
CQUAD4   19      1       19      20      79      78
CQUAD4   20      1       20      21      80      79
$ ... 459 like lines cut
CTRIA3   480     1       962     995     994
CQUAD4   481     1       962     963     996     995
CQUAD4   482     1       963     964     997     996
CQUAD4   483     1       964     965     998     997
CQUAD4   484     1       965     966     999     998
CQUAD4   485     1       966     967     1000    999
CQUAD4   486     1       967     968     1001    1000
CQUAD4   487     1       968     969     1002    1001
CQUAD4   488     1       969     970     1003    1002
CQUAD4   489     1       970     971     1004    1003
CQUAD4   490     1       971     972     1005    1004
CQUAD4   491     1       972     973     1006    1005
CQUAD4   492     1       973     974     1007    1006
CQUAD4   493     1       974     975     1008    1007
CQUAD4   494     1       975     976     1009    1008
CQUAD4   495     1       976     977     1010    1009
CQUAD4   496     1       977     978     1011    1010
CQUAD4   497     1       1012    1013    1045    1011
CQUAD4   498     1       1013    1014    1046    1045
CQUAD4   499     1       1014    1015    1047    1046
CQUAD4   500     1       1015    1016    1048    1047
$ ... 11 like lines cut
CTRIA3   512     1       1027    1060    1059
CQUAD4   513     1       1027    1028    1061    1060
CQUAD4   514     1       1028    1029    1062    1061
CQUAD4   515     1       1029    1030    1063    1062
CQUAD4   516     1       1030    1031    1064    1063
CQUAD4   517     1       1031    1032    1065    1064
CQUAD4   518     1       1032    1033    1066    1065
CQUAD4   519     1       1033    1034    1067    1066
CQUAD4   520     1       1034    1035    1068    1067
CQUAD4   521     1       1035    1036    1069    1068
CQUAD4   522     1       1036    1037    1070    1069
CQUAD4   523     1       1037    1038    1071    1070
CQUAD4   524     1       1038    1039    1072    1071
CQUAD4   525     1       1039    1040    1073    1072
CQUAD4   526     1       1040    1041    1074    1073
CQUAD4   527     1       1041    1042    1075    1074
CQUAD4   528     1       1042    1043    979     1075
CQUAD4   529     1       1077    1078    1132    1131
CQUAD4   530     1       1078    1079    1133    1132
CQUAD4   531     1       1079    1080    1134    1133
CQUAD4   532     1       1080    1081    1135    1134
$ ... 22 like lines cut
CTRIA3   555     1       1103    1158    1157
CQUAD4   556     1       1103    1104    1159    1158
CQUAD4   557     1       1104    1105    1160    1159
CQUAD4   558     1       1105    1106    1161    1160
CQUAD4   559     1       1106    1107    1162    1161
CQUAD4   560     1       1107    1108    1163    1162
CQUAD4   561     1       1108    1109    1164    1163
CQUAD4   562     1       1109    1110    1165    1164
CQUAD4   563     1       1110    1111    1166    1165
CQUAD4   564     1       1111    1112    1167    1166
CQUAD4   565     1       1112    1113    1168    1167
CQUAD4   566     1       1113    1114    1169    1168
CQUAD4   567     1       1114    1115    1170    1169
CQUAD4   568     1       1115    1116    1171    1170
CQUAD4   569     1       1116    1117    1172    1171
CQUAD4   570     1       1117    1118    1173    1172
CQUAD4   571     1       1118    1119    1174    1173
CQUAD4   572     1       1119    1120    1175    1174
CQUAD4   573     1       1120    1121    1176    1175
CQUAD4   574     1       1121    1122    1177    1176
CQUAD4   575     1       1122    1123    1178    1177
$ ... 33 like lines cut
CTRIA3   609     1       1212    1267    1266
CQUAD4   610     1       1212    1213    1268    1267
CQUAD4   611     1       1213    1214    1269    1268
CQUAD4   612     1       1214    1215    1270    1269
CQUAD4   613     1       1215    1216    1271    1270
CQUAD4   614     1       1216    1217    1272    1271
CQUAD4   615     1       1217    1218    1273    1272
CQUAD4   616     1       1218    1219    1274    1273
CQUAD4   617     1       1219    1220    1275    1274
CQUAD4   618     1       1220    1221    1276    1275
CQUAD4   619     1       1221    1222    1277    1276
CQUAD4   620     1       1222    1223    1278    1277
CQUAD4   621     1       1223    1224    1279    1278
CQUAD4   622     1       1224    1225    1280    1279
CQUAD4   623     1       1225    1226    1281    1280
CQUAD4   624     1       1226    1227    1282    1281
CQUAD4   625     1       1227    1228    1283    1282
CQUAD4   626     1       1228    1229    1284    1283
CQUAD4   627     1       1229    1230    1285    1284
CQUAD4   628     1       1230    1231    1286    1285
CQUAD4   629     1       1231    1232    1287    1286
$ ... 41 like lines cut
CTRIA3   671     1       1329    1399    1398
CQUAD4   672     1       1329    1330    1400    1399
CQUAD4   673     1       1330    1331    1401    1400
CQUAD4   674     1       1331    1332    1402    1401
CQUAD4   675     1       1332    1333    1403    1402
CQUAD4   676     1       1333    1334    1404    1403
CQUAD4   677     1       1334    1335    1405    1404
CQUAD4   678     1       1335    1336    1406    1405
CQUAD4   679     1       1336    1337    1407    1406
CQUAD4   680     1       1337    1338    1408    1407
CQUAD4   681     1       1338    1339    1409    1408
CQUAD4   682     1       1339    1340    1410    1409
CQUAD4   683     1       1340    1341    1411    1410
CQUAD4   684     1       1341    1342    1412    1411
CQUAD4   685     1       1342    1343    1413    1412
CQUAD4   686     1       1343    1344    1414    1413
CQUAD4   687     1       1344    1345    1415    1414
CQUAD4   688     1       1345    1346    1416    1415
CQUAD4   689     1       1346    1347    1417    1416
CQUAD4   690     1       1347    1348    1418    1417
CQUAD4   691     1       1348    1349    1419    1418
$ ... 48 like lines cut
CTRIA3   740     1       1468    1538    1537
CQUAD4   741     1       1468    1469    1539    1538
CQUAD4   742     1       1469    1470    1540    1539
CQUAD4   743     1       1470    1471    1541    1540
CQUAD4   744     1       1471    1472    1542    1541
CQUAD4   745     1       1472    1473    1543    1542
CQUAD4   746     1       1473    1474    1544    1543
CQUAD4   747     1       1474    1475    1545    1544
CQUAD4   748     1       1475    1476    1546    1545
CQUAD4   749     1       1476    1477    1547    1546
CQUAD4   750     1       1477    1478    1548    1547
CQUAD4   751     1       1478    1479    1549    1548
CQUAD4   752     1       1479    1480    1550    1549
CQUAD4   753     1       1480    1481    1551    1550
CQUAD4   754     1       1481    1482    1552    1551
CQUAD4   755     1       1482    1483    1553    1552
CQUAD4   756     1       1483    1484    1554    1553
CQUAD4   757     1       1484    1485    1555    1554
CQUAD4   758     1       1485    1486    1556    1555
CQUAD4   759     1       1486    1487    1557    1556
CQUAD4   760     1       1487    1488    1558    1557
$ ... 53 like lines cut
CTRIA3   814     1       1612    1692    1691
CQUAD4   815     1       1612    1613    1693    1692
CQUAD4   816     1       1613    1614    1694    1693
CQUAD4   817     1       1614    1615    1695    1694
CQUAD4   818     1       1615    1616    1696    1695
CQUAD4   819     1       1616    1617    1697    1696
CQUAD4   820     1       1617    1618    1698    1697
CQUAD4   821     1       1618    1619    1699    1698
CQUAD4   822     1       1619    1620    1700    1699
CQUAD4   823     1       1620    1621    1701    1700
CQUAD4   824     1       1621    1622    1702    1701
CQUAD4   825     1       1622    1623    1703    1702
CQUAD4   826     1       1623    1624    1704    1703
CQUAD4   827     1       1624    1625    1705    1704
CQUAD4   828     1       1625    1626    1706    1705
CQUAD4   829     1       1626    1627    1707    1706
CQUAD4   830     1       1627    1628    1708    1707
CQUAD4   831     1       1628    1629    1709    1708
CQUAD4   832     1       1629    1630    1710    1709
CQUAD4   833     1       1630    1631    1711    1710
CQUAD4   834     1       1631    1632    1712    1711
$ ... 58 like lines cut
CTRIA3   893     1       1771    1851    1850
CQUAD4   894     1       1771    1772    1852    1851
CQUAD4   895     1       1772    1773    1853    1852
CQUAD4   896     1       1773    1774    1854    1853
CQUAD4   897     1       1774    1775    1855    1854
CQUAD4   898     1       1775    1776    1856    1855
CQUAD4   899     1       1776    1777    1857    1856
CQUAD4   900     1       1777    1778    1858    1857
CQUAD4   901     1       1778    1779    1859    1858
CQUAD4   902     1       1779    1780    1860    1859
CQUAD4   903     1       1780    1781    1861    1860
CQUAD4   904     1       1781    1782    1862    1861
CQUAD4   905     1       1782    1783    1863    1862
CQUAD4   906     1       1783    1784    1864    1863
CQUAD4   907     1       1784    1785    1865    1864
CQUAD4   908     1       1785    1786    1866    1865
CQUAD4   909     1       1786    1787    1867    1866
CQUAD4   910     1       1787    1788    1868    1867
CQUAD4   911     1       1788    1789    1869    1868
CQUAD4   912     1       1789    1790    1870    1869
CQUAD4   913     1       1790    1791    1871    1870
$ ... 1059 like lines cut
$ Referenced Material Records
$ Material Record : Al
$ Description of Material : Date: 27-Nov-21           Time: 14:16:20
MAT1     1       70.             .3
$ Multipoint Constraints of the Entire Model
$ ID conflict : the PATRAN MPC ID was 1
RBE2     1973    945     123456  1       60      119     178     237
         296     355     414     473     532     591     650     709
         768     827     886     1652    1653    1654    1655    1656
         1657    1658    1659    1660    1661    1662    1663    1664
         1665    1666    1667    1668    1669    1670    1671    1672
         1673    1674    1675    1676    1677    1678    1679    1680
         1681    1682    1683    1684    1685    1686    1687    1688
         1689    1690    1691    1692    1693    1694    1695    1696
         1697    1698    1699    1700    1701    1702    1703    1704
         1705    1706    1707    1708    1709    1710    1711    1712
         1713    1714    1715    1716    1717    1718    1719    1720
         1721    1722    1723    1724    1725    1726    1727    1728
         1729    1730    1731    1811    1812    1813    1814    1815
         1816    1817    1818    1819    1820    1821    1822    1823
         1824    1825    1826    1827    1828    1829    1830    1831
         1832    1833    1834    1835    1836    1837    1838    1839
         1840    1841    1842    1843    1844    1845    1846    1847
         1848    1849    1850    1851    1852    1853    1854    1855
         1856    1857    1858    1859    1860    1861    1862    1863
         1864    1865    1866    1867    1868    1869    1870    1871
         1872    1873    1874    1875    1876    1877    1878    1879
$ ... 6 like lines cut
$ ID conflict : the PATRAN MPC ID was 2
RBE2     1974    946     123456  59      118     177     236     295
         354     413     472     531     590     649     708     767
         826     885     944     947     948     949     950     951
         952     953     954     955     956     957     958     959
         960     961     962     963     964     965     966     967
         968     969     970     971     972     973     974     975
         976     977     978     1012    1013    1014    1015    1016
         1017    1018    1019    1020    1021    1022    1023    1024
         1025    1026    1027    1028    1029    1030    1031    1032
         1033    1034    1035    1036    1037    1038    1039    1040
         1041    1042    1043    1983    2026    2119    2162    2255
         2298    2391    2434    2527    2570    2663    2706    2799
         2842    2935    2978    3071    3114    3207    3250    3343
         3386    3479    3522    3615    3658    3751    3794    3887
         3930    4023    4066
$ Nodes of the Entire Model
GRID*    1                              124.874977111816 -2.5
*        0.
GRID*    2                               123.58122253418 -2.5
*       4.82758617401123
GRID*    3                              122.287475585938 -2.5
*        9.6551723480225
GRID*    4                              120.993721008301 -2.5
*       14.4827575683594
GRID*    5                              119.699966430664 -2.5
*       19.3103446960449
GRID*    6                              118.406211853027 -2.5
*       24.1379318237305
GRID*    7                              117.112464904785 -2.5
*        28.965518951416
GRID*    8                              115.818710327148 -2.5
*       33.7931022644043
GRID*    9                              114.524955749512 -2.5
*       38.6206893920898
GRID*    10                              113.23120880127 -2.5
*       43.4482688903809
GRID*    11                             111.937454223633 -2.5
*       48.2758636474609
GRID*    12                             110.643699645996 -2.5
*       53.1034469604492
GRID*    13                             109.349945068359 -2.5
*        57.931037902832
GRID*    14                             108.056198120117 -2.5
*        62.758617401123
GRID*    15                              106.76244354248 -2.5
*       67.5862045288086
GRID*    16                             105.468688964844 -2.5
*       72.4137878417969
GRID*    17                             104.174934387207 -2.5
*       77.2413864135742
GRID*    18                              102.88117980957 -2.5
*        82.068977355957
GRID*    19                             101.587432861328 -2.5
*       86.8965530395508
GRID*    20                             100.293678283691 -2.5
*       91.7241439819336
$ ... 1848 like lines cut
GRID     945             0.      0.      -10.
GRID     946             0.      0.      290.
GRID*    947                            -43.921508789063-23.994440078735
*       280.012939453125
GRID*    948                            -46.123729705811-19.427654266357
*       280.012939453125
GRID*    949                            -47.852485656738-14.661913871765
*       280.012939453125
GRID*    950                            -49.090255737305 -9.745717048645
*       280.012939453125
GRID*    951                            -49.824367523193-4.7291250228882
*       280.012939453125
GRID*    952                            -50.047168731689.336016118526459
*       280.012939453125
GRID*    953                            -49.7564201354985.39727592468262
*       280.012939453125
GRID*    954                            -48.95513534545910.4032049179077
*       280.012939453125
GRID*    955                            -47.65143585205115.3027105331421
*       280.012939453125
GRID*    956                            -45.85871505737320.0452098846436
*       280.012939453125
GRID*    957                            -43.59558105468824.5816478729248
*       280.012939453125
GRID*    958                            -40.88500976562528.8660335540771
*       280.012939453125
GRID*    959                            -37.755035400391 32.854061126709
*       280.012939453125
GRID*    960                             -34.2372627258336.5053672790527
*       280.012939453125
GRID*    961                            -30.36841201782239.7817993164063
*       280.012939453125
GRID*    962                            -26.18807411193842.6499328613281
*       280.012939453125
GRID*    963                            -21.73906707763745.0804290771484
*       280.012939453125
GRID*    964                            -17.06660270690947.0485191345215
*       280.012939453125
GRID*    965                            -12.21902370452948.5337791442871
*       280.012939453125
GRID*    966                             -7.24642229080249.5209197998047
*       280.012939453125
$ ... 6048 like lines cut
$ Loads for Load Case : LC
SPCADD   2       1
LOAD     2       1.      1.      1       1.      3
$ Displacement Constraints of Load Set : D
SPC1     1       123456  945
$ Deform Body Contact LBC set: H1C
BCBODY1  1               3D      DEFORM  5
BSURF    5       933     934     935     936     937     938     939
         940     941     942     943     944     945     946     947
         948     949     950     951     952     953     954     955
         956     957     958     959     960     961     962     963
         964     965     966     967     968     969     970     971
         972     973     974     975     976     977     978     979
         980     981     982     983     984     985     986     987
         988     989     990     991     992     993     994     995
         996     997     998     999     1000    1001    1002    1003
         1004    1005    1006    1007    1008    1009    1010    1011
         1012    1013    1014    1015    1016    1017    1018    1019
         1020    1021    1022    1023    1024    1025    1026    1027
         1028    1029    1030    1031    1032    1033    1034    1035
         1036    1037    1038    1039    1040    1041    1042    1043
         1044    1045    1046    1047    1048    1049    1050    1051
         1052    1053    1054    1055    1056    1057    1058    1059
         1060    1061    1062    1063    1064    1065    1066    1067
         1068    1069    1070    1071    1072    1073    1074    1075
         1076    1077    1078    1079    1080    1081    1082    1083
         1084    1085    1086    1087    1088    1089    1090    1091
         1092    1093    1094    1095    1096    1097    1098    1099
$ ... 45 like lines cut
$ Deform Body Contact LBC set: H2C
BCBODY1  2               3D      DEFORM  6
BSURF    6       1453    1454    1455    1456    1457    1458    1459
         1460    1461    1462    1463    1464    1465    1466    1467
         1468    1469    1470    1471    1472    1473    1474    1475
         1476    1477    1478    1479    1480    1481    1482    1483
         1484    1485    1486    1487    1488    1489    1490    1491
         1492    1493    1494    1495    1496    1497    1498    1499
         1500    1501    1502    1503    1504    1505    1506    1507
         1508    1509    1510    1511    1512    1513    1514    1515
         1516    1517    1518    1519    1520    1521    1522    1523
         1524    1525    1526    1527    1528    1529    1530    1531
         1532    1533    1534    1535    1536    1537    1538    1539
         1540    1541    1542    1543    1544    1545    1546    1547
         1548    1549    1550    1551    1552    1553    1554    1555
         1556    1557    1558    1559    1560    1561    1562    1563
         1564    1565    1566    1567    1568    1569    1570    1571
         1572    1573    1574    1575    1576    1577    1578    1579
         1580    1581    1582    1583    1584    1585    1586    1587
         1588    1589    1590    1591    1592    1593    1594    1595
         1596    1597    1598    1599    1600    1601    1602    1603
         1604    1605    1606    1607    1608    1609    1610    1611
         1612    1613    1614    1615    1616    1617    1618    1619
$ ... 45 like lines cut
$ Deform Body Contact LBC set: RC
BCBODY1  3               3D      DEFORM  4
BSURF    4       465     466     467     468     469     470     471
         472     473     474     475     476     477     478     479
         480     481     482     483     484     485     486     487
         488     489     490     491     492     493     494     495
         496     497     498     499     500     501     502     503
         504     505     506     507     508     509     510     511
         512     513     514     515     516     517     518     519
         520     521     522     523     524     525     526     527
         528     529     530     531     532     533     534     535
         536     537     538     539     540     541     542     543
         544     545     546     547     548     549     550     551
         552     553     554     555     556     557     558     559
         560     561     562     563     564     565     566     567
         568     569     570     571     572     573     574     575
         576     577     578     579     580     581     582     583
         584     585     586     587     588     589     590     591
         592     593     594     595     596     597     598     599
         600     601     602     603     604     605     606     607
         608     609     610     611     612     613     614     615
         616     617     618     619     620     621     622     623
         624     625     626     627     628     629     630     631
$ ... 38 like lines cut
$ Deform Body Contact LBC set: VC
BCBODY1  4               3D      DEFORM  3
BSURF    3       1       2       3       4       5       6       7
         8       9       10      11      12      13      14      15
         16      17      18      19      20      21      22      23
         24      25      26      27      28      29      30      31
         32      33      34      35      36      37      38      39
         40      41      42      43      44      45      46      47
         48      49      50      51      52      53      54      55
         56      57      58      59      60      61      62      63
         64      65      66      67      68      69      70      71
         72      73      74      75      76      77      78      79
         80      81      82      83      84      85      86      87
         88      89      90      91      92      93      94      95
         96      97      98      99      100     101     102     103
         104     105     106     107     108     109     110     111
         112     113     114     115     116     117     118     119
         120     121     122     123     124     125     126     127
         128     129     130     131     132     133     134     135
         136     137     138     139     140     141     142     143
         144     145     146     147     148     149     150     151
         152     153     154     155     156     157     158     159
         160     161     162     163     164     165     166     167
$ ... 38 like lines cut
$ Nodal Forces of Load Set : L
FORCE    1       946     0       15.     0.      0.      -1.
$ Nodal Forces of Load Set : L
MOMENT   3       946     0       0.      .57735  .57735  .57735
$ Referenced Coordinate Frames
ENDDATA 0825d06c
