$ MSC.Nastran input file created on November  29, 2021 at 08:57:54 by
$ Patran 2021.1  (Student Edition)
$ Direct Text Input for Nastran System Cell Section
$ Direct Text Input for File Management Section
$ Direct Text Input for Executive Control
$ Linear Static Analysis, Database
SOL 101
CEND
$ Direct Text Input for Global Case Control Data
TITLE = MSC.Nastran job created on 28-Nov-21 at 19:39:56
ECHO = NONE
   BCONTACT = 0
SUBCASE 1
   SUBTITLE=Default
$ Direct Text Input for this Subcase
   NLSTEP = 1
   BCONTACT = 1
   SPC = 2
   LOAD = 2
   DISPLACEMENT(SORT1,REAL)=ALL
   SPCFORCES(SORT1,REAL)=ALL
   STRESS(SORT1,REAL,VONMISES,BILIN)=ALL
   BOUTPUT(SORT1,REAL)=ALL
BEGIN BULK
$ Direct Text Input for Bulk Data
MDLPRM   HDF5    0
PARAM    POST    0
PARAM   PRTMAXIM YES
BCPARA   0       NLGLUE  0
NLSTEP   1
BCTABL1  0       8001    8002    8003    8004    8005    8006    8007
         8008    8009    8010    8011    8012    8013    8014    8015
BCONECT  8001    3001            1       1
BCONECT  8002    3002            2       1
BCONECT  8003    3003            3       1
BCONECT  8004    3004            4       1
BCONECT  8005    3005            5       1
BCONECT  8006    3006            2       2
BCONECT  8007    3007            3       2
BCONECT  8008    3008            4       2
BCONECT  8009    3009            5       2
BCONECT  8010    3010            3       3
BCONECT  8011    3011            4       3
BCONECT  8012    3012            5       3
BCONECT  8013    3013            4       4
BCONECT  8014    3014            5       4
BCONECT  8015    3015            5       5
BCONPRG  3001            ERROR   5.
BCONPRG  3002            ERROR   5.      IGLUE   4       ISEARCH 2
BCONPRG  3003            ERROR   5.      IGLUE   4       ISEARCH 2
BCONPRG  3004            ERROR   5.      IGLUE   4       ISEARCH 2
BCONPRG  3005            ERROR   5.      IGLUE   4       ISEARCH 2
BCONPRG  3006            ERROR   5.
BCONPRG  3007            ERROR   5.      IGLUE   4       ISEARCH 2
BCONPRG  3008            ERROR   5.      IGLUE   4       ISEARCH 2
BCONPRG  3009            ERROR   5.      IGLUE   4       ISEARCH 2
BCONPRG  3010            ERROR   5.
BCONPRG  3011            ERROR   5.      IGLUE   4       ISEARCH 2
BCONPRG  3012            ERROR   5.      IGLUE   4       ISEARCH 2
BCONPRG  3013            ERROR   5.
BCONPRG  3014            ERROR   5.      IGLUE   4       ISEARCH 2
BCONPRG  3015            ERROR   5.
BCTABL1  1       8001    8002    8003    8004    8005    8006    8007
         8008    8009    8010    8011    8012    8013    8014    8015
$ Elements and Element Properties for region : SHell_Ten10
$ Composite Property Reference Material: Laminate_Tension_10
$ Composite Material Description :
PCOMP    1                      .0879359 HILL
         1       .183    0.      YES     1       .183    0.      YES
         1       .183    0.      YES     1       .183    0.      YES
         1       .183    0.      YES     1       .183    0.      YES
         1       .183    0.      YES     1       .183    0.      YES
         1       .183    0.      YES     1       .183    0.      YES
         1       .183    0.      YES
$ Pset: "SHell_Ten10" will be imported as: "pcomp.1"
CQUAD4   1       1       1       2       53      52
CQUAD4   2       1       2       3       54      53
CQUAD4   3       1       3       4       55      54
CQUAD4   4       1       4       5       56      55
CQUAD4   5       1       5       6       57      56
CQUAD4   6       1       6       7       58      57
CQUAD4   7       1       7       8       59      58
CQUAD4   8       1       8       9       60      59
CQUAD4   9       1       9       10      61      60
CQUAD4   10      1       10      11      62      61
CQUAD4   11      1       11      12      63      62
CQUAD4   12      1       12      13      64      63
CQUAD4   13      1       13      14      65      64
CQUAD4   14      1       14      15      66      65
CQUAD4   15      1       15      16      67      66
CQUAD4   16      1       16      17      68      67
CQUAD4   17      1       17      18      69      68
CQUAD4   18      1       18      19      70      69
CQUAD4   19      1       19      20      71      70
CQUAD4   20      1       20      21      72      71
$ ... 80 like lines cut
$ Elements and Element Properties for region : SHell_Com10
$ Composite Property Reference Material: Laminate_Compresson_10
$ Composite Material Description :
PCOMP    2                      .0879359 HILL
         2       .183    0.      YES     2       .183    0.      YES
         2       .183    0.      YES     2       .183    0.      YES
         2       .183    0.      YES     2       .183    0.      YES
         2       .183    0.      YES     2       .183    0.      YES
         2       .183    0.      YES     2       .183    0.      YES
         2       .183    0.      YES     2       .183    0.      YES
$ Pset: "SHell_Com10" will be imported as: "pcomp.2"
CQUAD4   1000    2       1000    1001    1099    1098
CQUAD4   1001    2       1001    1002    1100    1099
CQUAD4   1002    2       1002    1003    1101    1100
CQUAD4   1003    2       1003    1004    1102    1101
CQUAD4   1004    2       1004    1005    1103    1102
CQUAD4   1005    2       1005    1006    1104    1103
CQUAD4   1006    2       1006    1007    1105    1104
CQUAD4   1007    2       1007    1008    1106    1105
CQUAD4   1008    2       1008    1009    1107    1106
CQUAD4   1009    2       1009    1010    1108    1107
CQUAD4   1010    2       1010    1011    1109    1108
CQUAD4   1011    2       1011    1012    1110    1109
CQUAD4   1012    2       1012    1013    1111    1110
CQUAD4   1013    2       1013    1014    1112    1111
CQUAD4   1014    2       1014    1015    1113    1112
CQUAD4   1015    2       1015    1016    1114    1113
CQUAD4   1016    2       1016    1017    1115    1114
CQUAD4   1017    2       1017    1018    1116    1115
CQUAD4   1018    2       1018    1019    1117    1116
CQUAD4   1019    2       1019    1020    1118    1117
$ ... 1605 like lines cut
CTRIA3   3073    2       10116   10188   10187
CQUAD4   3074    2       10116   10117   10189   10188
CQUAD4   3075    2       10117   10118   10190   10189
CQUAD4   3076    2       10118   10119   10191   10190
CQUAD4   3077    2       10119   10120   10192   10191
CQUAD4   3078    2       10120   10121   10193   10192
CQUAD4   3079    2       10121   10122   10194   10193
CQUAD4   3080    2       10122   10123   10195   10194
CQUAD4   3081    2       10123   10124   10196   10195
CQUAD4   3082    2       10124   10125   10197   10196
CQUAD4   3083    2       10125   10126   10198   10197
CQUAD4   3084    2       10126   10127   10199   10198
CQUAD4   3085    2       10127   10128   10200   10199
CQUAD4   3086    2       10128   10129   10201   10200
CQUAD4   3087    2       10129   10130   10202   10201
CQUAD4   3088    2       10130   10131   10203   10202
CQUAD4   3089    2       10131   10132   10204   10203
CQUAD4   3090    2       10132   10133   10205   10204
CQUAD4   3091    2       10133   10134   10206   10205
CQUAD4   3092    2       10134   10135   10207   10206
CQUAD4   3093    2       10135   10136   10208   10207
$ ... 88 like lines cut
CTRIA3   3182    2       10339   10411   10410
CQUAD4   3183    2       10339   10340   10412   10411
CQUAD4   3184    2       10340   10341   10413   10412
CQUAD4   3185    2       10341   10342   10414   10413
CQUAD4   3186    2       10342   10343   10415   10414
CQUAD4   3187    2       10343   10344   10416   10415
CQUAD4   3188    2       10344   10345   10417   10416
CQUAD4   3189    2       10345   10346   10418   10417
CQUAD4   3190    2       10346   10347   10419   10418
CQUAD4   3191    2       10347   10348   10420   10419
CQUAD4   3192    2       10348   10349   10421   10420
CQUAD4   3193    2       10349   10350   10422   10421
CQUAD4   3194    2       10350   10351   10423   10422
CQUAD4   3195    2       10351   10352   10424   10423
CQUAD4   3196    2       10352   10353   10425   10424
CQUAD4   3197    2       10353   10354   10426   10425
CQUAD4   3198    2       10354   10355   10427   10426
CQUAD4   3199    2       10355   10356   10428   10427
CQUAD4   3200    2       10356   10357   10429   10428
CQUAD4   3201    2       10357   10358   10430   10429
CQUAD4   3202    2       10358   10359   10431   10430
$ ... 88 like lines cut
CTRIA3   3291    2       10562   10634   10633
CQUAD4   3292    2       10562   10563   10635   10634
CQUAD4   3293    2       10563   10564   10636   10635
CQUAD4   3294    2       10564   10565   10637   10636
CQUAD4   3295    2       10565   10566   10638   10637
CQUAD4   3296    2       10566   10567   10639   10638
CQUAD4   3297    2       10567   10568   10640   10639
CQUAD4   3298    2       10568   10569   10641   10640
CQUAD4   3299    2       10569   10570   10642   10641
CQUAD4   3300    2       10570   10571   10643   10642
CQUAD4   3301    2       10571   10572   10644   10643
CQUAD4   3302    2       10572   10573   10645   10644
CQUAD4   3303    2       10573   10574   10646   10645
CQUAD4   3304    2       10574   10575   10647   10646
CQUAD4   3305    2       10575   10576   10648   10647
CQUAD4   3306    2       10576   10577   10649   10648
CQUAD4   3307    2       10577   10578   10650   10649
CQUAD4   3308    2       10578   10579   10651   10650
CQUAD4   3309    2       10579   10580   10652   10651
CQUAD4   3310    2       10580   10581   10653   10652
CQUAD4   3311    2       10581   10582   10654   10653
$ ... 88 like lines cut
CTRIA3   3400    2       10785   10857   10856
CQUAD4   3401    2       10785   10786   10858   10857
CQUAD4   3402    2       10786   10787   10859   10858
CQUAD4   3403    2       10787   10788   10860   10859
CQUAD4   3404    2       10788   10789   10861   10860
CQUAD4   3405    2       10789   10790   10862   10861
CQUAD4   3406    2       10790   10791   10863   10862
CQUAD4   3407    2       10791   10792   10864   10863
CQUAD4   3408    2       10792   10793   10865   10864
CQUAD4   3409    2       10793   10794   10866   10865
CQUAD4   3410    2       10794   10795   10867   10866
CQUAD4   3411    2       10795   10796   10868   10867
CQUAD4   3412    2       10796   10797   10869   10868
CQUAD4   3413    2       10797   10798   10870   10869
CQUAD4   3414    2       10798   10799   10871   10870
CQUAD4   3415    2       10799   10800   10872   10871
CQUAD4   3416    2       10800   10801   10873   10872
CQUAD4   3417    2       10801   10802   10874   10873
CQUAD4   3418    2       10802   10803   10875   10874
CQUAD4   3419    2       10803   10804   10876   10875
CQUAD4   3420    2       10804   10805   10877   10876
$ ... 88 like lines cut
CTRIA3   3509    2       11008   11080   11079
CQUAD4   3510    2       11008   11009   11081   11080
CQUAD4   3511    2       11009   11010   11082   11081
CQUAD4   3512    2       11010   11011   11083   11082
CQUAD4   3513    2       11011   11012   11084   11083
CQUAD4   3514    2       11012   11013   11085   11084
CQUAD4   3515    2       11013   11014   11086   11085
CQUAD4   3516    2       11014   11015   11087   11086
CQUAD4   3517    2       11015   11016   11088   11087
CQUAD4   3518    2       11016   11017   11089   11088
CQUAD4   3519    2       11017   11018   11090   11089
CQUAD4   3520    2       11018   11019   11091   11090
CQUAD4   3521    2       11019   11020   11092   11091
CQUAD4   3522    2       11020   11021   11093   11092
CQUAD4   3523    2       11021   11022   11094   11093
CQUAD4   3524    2       11022   11023   11095   11094
CQUAD4   3525    2       11023   11024   11096   11095
CQUAD4   3526    2       11024   11025   11097   11096
CQUAD4   3527    2       11025   11026   11098   11097
CQUAD4   3528    2       11026   11027   11099   11098
CQUAD4   3529    2       11027   11028   11100   11099
$ ... 88 like lines cut
CTRIA3   3618    2       11231   11303   11302
CQUAD4   3619    2       11231   11232   11304   11303
CQUAD4   3620    2       11232   11233   11305   11304
CQUAD4   3621    2       11233   11234   11306   11305
CQUAD4   3622    2       11234   11235   11307   11306
CQUAD4   3623    2       11235   11236   11308   11307
CQUAD4   3624    2       11236   11237   11309   11308
CQUAD4   3625    2       11237   11238   11310   11309
CQUAD4   3626    2       11238   11239   11311   11310
CQUAD4   3627    2       11239   11240   11312   11311
CQUAD4   3628    2       11240   11241   11313   11312
CQUAD4   3629    2       11241   11242   11314   11313
CQUAD4   3630    2       11242   11243   11315   11314
CQUAD4   3631    2       11243   11244   11316   11315
CQUAD4   3632    2       11244   11245   11317   11316
CQUAD4   3633    2       11245   11246   11318   11317
CQUAD4   3634    2       11246   11247   11319   11318
CQUAD4   3635    2       11247   11248   11320   11319
CQUAD4   3636    2       11248   11249   11321   11320
CQUAD4   3637    2       11249   11250   11322   11321
CQUAD4   3638    2       11250   11251   11323   11322
$ ... 88 like lines cut
CTRIA3   3727    2       11454   11526   11525
CQUAD4   3728    2       11454   11455   11527   11526
CQUAD4   3729    2       11455   11456   11528   11527
CQUAD4   3730    2       11456   11457   11529   11528
CQUAD4   3731    2       11457   11458   11530   11529
CQUAD4   3732    2       11458   11459   11531   11530
CQUAD4   3733    2       11459   11460   11532   11531
CQUAD4   3734    2       11460   11461   11533   11532
CQUAD4   3735    2       11461   11462   11534   11533
CQUAD4   3736    2       11462   11463   11535   11534
CQUAD4   3737    2       11463   11464   11536   11535
CQUAD4   3738    2       11464   11465   11537   11536
CQUAD4   3739    2       11465   11466   11538   11537
CQUAD4   3740    2       11466   11467   11539   11538
CQUAD4   3741    2       11467   11468   11540   11539
CQUAD4   3742    2       11468   11469   11541   11540
CQUAD4   3743    2       11469   11470   11542   11541
CQUAD4   3744    2       11470   11471   11543   11542
CQUAD4   3745    2       11471   11472   11544   11543
CQUAD4   3746    2       11472   11473   11545   11544
CQUAD4   3747    2       11473   11474   11546   11545
$ ... 88 like lines cut
CTRIA3   3836    2       11677   11749   11748
CQUAD4   3837    2       11677   11678   11750   11749
CQUAD4   3838    2       11678   11679   11751   11750
CQUAD4   3839    2       11679   11680   11752   11751
CQUAD4   3840    2       11680   11681   11753   11752
CQUAD4   3841    2       11681   11682   11754   11753
CQUAD4   3842    2       11682   11683   11755   11754
CQUAD4   3843    2       11683   11684   11756   11755
CQUAD4   3844    2       11684   11685   11757   11756
CQUAD4   3845    2       11685   11686   11758   11757
CQUAD4   3846    2       11686   11687   11759   11758
CQUAD4   3847    2       11687   11688   11760   11759
CQUAD4   3848    2       11688   11689   11761   11760
CQUAD4   3849    2       11689   11690   11762   11761
CQUAD4   3850    2       11690   11691   11763   11762
CQUAD4   3851    2       11691   11692   11764   11763
CQUAD4   3852    2       11692   11693   11765   11764
CQUAD4   3853    2       11693   11694   11766   11765
CQUAD4   3854    2       11694   11695   11767   11766
CQUAD4   3855    2       11695   11696   11768   11767
CQUAD4   3856    2       11696   11697   11769   11768
$ ... 88 like lines cut
CTRIA3   7073    2       7115    7187    7186
CQUAD4   7074    2       7115    7116    7188    7187
CQUAD4   7075    2       7116    7117    7189    7188
CQUAD4   7076    2       7117    7118    7190    7189
CQUAD4   7077    2       7118    7119    7191    7190
CQUAD4   7078    2       7119    7120    7192    7191
CQUAD4   7079    2       7120    7121    7193    7192
CQUAD4   7080    2       7121    7122    7194    7193
CQUAD4   7081    2       7122    7123    7195    7194
CQUAD4   7082    2       7123    7124    7196    7195
CQUAD4   7083    2       7124    7125    7197    7196
CQUAD4   7084    2       7125    7126    7198    7197
CQUAD4   7085    2       7126    7127    7199    7198
CQUAD4   7086    2       7127    7128    7200    7199
CQUAD4   7087    2       7128    7129    7201    7200
CQUAD4   7088    2       7129    7130    7202    7201
CQUAD4   7089    2       7130    7131    7203    7202
CQUAD4   7090    2       7131    7132    7204    7203
CQUAD4   7091    2       7132    7133    7205    7204
CQUAD4   7092    2       7133    7134    7206    7205
CQUAD4   7093    2       7134    7135    7207    7206
$ ... 88 like lines cut
CTRIA3   7182    2       7338    7410    7409
CQUAD4   7183    2       7338    7339    7411    7410
CQUAD4   7184    2       7339    7340    7412    7411
CQUAD4   7185    2       7340    7341    7413    7412
CQUAD4   7186    2       7341    7342    7414    7413
CQUAD4   7187    2       7342    7343    7415    7414
CQUAD4   7188    2       7343    7344    7416    7415
CQUAD4   7189    2       7344    7345    7417    7416
CQUAD4   7190    2       7345    7346    7418    7417
CQUAD4   7191    2       7346    7347    7419    7418
CQUAD4   7192    2       7347    7348    7420    7419
CQUAD4   7193    2       7348    7349    7421    7420
CQUAD4   7194    2       7349    7350    7422    7421
CQUAD4   7195    2       7350    7351    7423    7422
CQUAD4   7196    2       7351    7352    7424    7423
CQUAD4   7197    2       7352    7353    7425    7424
CQUAD4   7198    2       7353    7354    7426    7425
CQUAD4   7199    2       7354    7355    7427    7426
CQUAD4   7200    2       7355    7356    7428    7427
CQUAD4   7201    2       7356    7357    7429    7428
CQUAD4   7202    2       7357    7358    7430    7429
$ ... 88 like lines cut
CTRIA3   7291    2       7561    7633    7632
CQUAD4   7292    2       7561    7562    7634    7633
CQUAD4   7293    2       7562    7563    7635    7634
CQUAD4   7294    2       7563    7564    7636    7635
CQUAD4   7295    2       7564    7565    7637    7636
CQUAD4   7296    2       7565    7566    7638    7637
CQUAD4   7297    2       7566    7567    7639    7638
CQUAD4   7298    2       7567    7568    7640    7639
CQUAD4   7299    2       7568    7569    7641    7640
CQUAD4   7300    2       7569    7570    7642    7641
CQUAD4   7301    2       7570    7571    7643    7642
CQUAD4   7302    2       7571    7572    7644    7643
CQUAD4   7303    2       7572    7573    7645    7644
CQUAD4   7304    2       7573    7574    7646    7645
CQUAD4   7305    2       7574    7575    7647    7646
CQUAD4   7306    2       7575    7576    7648    7647
CQUAD4   7307    2       7576    7577    7649    7648
CQUAD4   7308    2       7577    7578    7650    7649
CQUAD4   7309    2       7578    7579    7651    7650
CQUAD4   7310    2       7579    7580    7652    7651
CQUAD4   7311    2       7580    7581    7653    7652
$ ... 88 like lines cut
CTRIA3   7400    2       7784    7856    7855
CQUAD4   7401    2       7784    7785    7857    7856
CQUAD4   7402    2       7785    7786    7858    7857
CQUAD4   7403    2       7786    7787    7859    7858
CQUAD4   7404    2       7787    7788    7860    7859
CQUAD4   7405    2       7788    7789    7861    7860
CQUAD4   7406    2       7789    7790    7862    7861
CQUAD4   7407    2       7790    7791    7863    7862
CQUAD4   7408    2       7791    7792    7864    7863
CQUAD4   7409    2       7792    7793    7865    7864
CQUAD4   7410    2       7793    7794    7866    7865
CQUAD4   7411    2       7794    7795    7867    7866
CQUAD4   7412    2       7795    7796    7868    7867
CQUAD4   7413    2       7796    7797    7869    7868
CQUAD4   7414    2       7797    7798    7870    7869
CQUAD4   7415    2       7798    7799    7871    7870
CQUAD4   7416    2       7799    7800    7872    7871
CQUAD4   7417    2       7800    7801    7873    7872
CQUAD4   7418    2       7801    7802    7874    7873
CQUAD4   7419    2       7802    7803    7875    7874
CQUAD4   7420    2       7803    7804    7876    7875
$ ... 88 like lines cut
CTRIA3   7509    2       8007    8079    8078
CQUAD4   7510    2       8007    8008    8080    8079
CQUAD4   7511    2       8008    8009    8081    8080
CQUAD4   7512    2       8009    8010    8082    8081
CQUAD4   7513    2       8010    8011    8083    8082
CQUAD4   7514    2       8011    8012    8084    8083
CQUAD4   7515    2       8012    8013    8085    8084
CQUAD4   7516    2       8013    8014    8086    8085
CQUAD4   7517    2       8014    8015    8087    8086
CQUAD4   7518    2       8015    8016    8088    8087
CQUAD4   7519    2       8016    8017    8089    8088
CQUAD4   7520    2       8017    8018    8090    8089
CQUAD4   7521    2       8018    8019    8091    8090
CQUAD4   7522    2       8019    8020    8092    8091
CQUAD4   7523    2       8020    8021    8093    8092
CQUAD4   7524    2       8021    8022    8094    8093
CQUAD4   7525    2       8022    8023    8095    8094
CQUAD4   7526    2       8023    8024    8096    8095
CQUAD4   7527    2       8024    8025    8097    8096
CQUAD4   7528    2       8025    8026    8098    8097
CQUAD4   7529    2       8026    8027    8099    8098
$ ... 88 like lines cut
CTRIA3   7618    2       8230    8302    8301
CQUAD4   7619    2       8230    8231    8303    8302
CQUAD4   7620    2       8231    8232    8304    8303
CQUAD4   7621    2       8232    8233    8305    8304
CQUAD4   7622    2       8233    8234    8306    8305
CQUAD4   7623    2       8234    8235    8307    8306
CQUAD4   7624    2       8235    8236    8308    8307
CQUAD4   7625    2       8236    8237    8309    8308
CQUAD4   7626    2       8237    8238    8310    8309
CQUAD4   7627    2       8238    8239    8311    8310
CQUAD4   7628    2       8239    8240    8312    8311
CQUAD4   7629    2       8240    8241    8313    8312
CQUAD4   7630    2       8241    8242    8314    8313
CQUAD4   7631    2       8242    8243    8315    8314
CQUAD4   7632    2       8243    8244    8316    8315
CQUAD4   7633    2       8244    8245    8317    8316
CQUAD4   7634    2       8245    8246    8318    8317
CQUAD4   7635    2       8246    8247    8319    8318
CQUAD4   7636    2       8247    8248    8320    8319
CQUAD4   7637    2       8248    8249    8321    8320
CQUAD4   7638    2       8249    8250    8322    8321
$ ... 88 like lines cut
CTRIA3   7727    2       8453    8525    8524
CQUAD4   7728    2       8453    8454    8526    8525
CQUAD4   7729    2       8454    8455    8527    8526
CQUAD4   7730    2       8455    8456    8528    8527
CQUAD4   7731    2       8456    8457    8529    8528
CQUAD4   7732    2       8457    8458    8530    8529
CQUAD4   7733    2       8458    8459    8531    8530
CQUAD4   7734    2       8459    8460    8532    8531
CQUAD4   7735    2       8460    8461    8533    8532
CQUAD4   7736    2       8461    8462    8534    8533
CQUAD4   7737    2       8462    8463    8535    8534
CQUAD4   7738    2       8463    8464    8536    8535
CQUAD4   7739    2       8464    8465    8537    8536
CQUAD4   7740    2       8465    8466    8538    8537
CQUAD4   7741    2       8466    8467    8539    8538
CQUAD4   7742    2       8467    8468    8540    8539
CQUAD4   7743    2       8468    8469    8541    8540
CQUAD4   7744    2       8469    8470    8542    8541
CQUAD4   7745    2       8470    8471    8543    8542
CQUAD4   7746    2       8471    8472    8544    8543
CQUAD4   7747    2       8472    8473    8545    8544
$ ... 88 like lines cut
CTRIA3   7836    2       8676    8748    8747
CQUAD4   7837    2       8676    8677    8749    8748
CQUAD4   7838    2       8677    8678    8750    8749
CQUAD4   7839    2       8678    8679    8751    8750
CQUAD4   7840    2       8679    8680    8752    8751
CQUAD4   7841    2       8680    8681    8753    8752
CQUAD4   7842    2       8681    8682    8754    8753
CQUAD4   7843    2       8682    8683    8755    8754
CQUAD4   7844    2       8683    8684    8756    8755
CQUAD4   7845    2       8684    8685    8757    8756
CQUAD4   7846    2       8685    8686    8758    8757
CQUAD4   7847    2       8686    8687    8759    8758
CQUAD4   7848    2       8687    8688    8760    8759
CQUAD4   7849    2       8688    8689    8761    8760
CQUAD4   7850    2       8689    8690    8762    8761
CQUAD4   7851    2       8690    8691    8763    8762
CQUAD4   7852    2       8691    8692    8764    8763
CQUAD4   7853    2       8692    8693    8765    8764
CQUAD4   7854    2       8693    8694    8766    8765
CQUAD4   7855    2       8694    8695    8767    8766
CQUAD4   7856    2       8695    8696    8768    8767
$ ... 15 like lines cut
$ Elements and Element Properties for region : Shell_Com_05
$ Composite Property Reference Material: Lam_Ten_5
$ Composite Material Description :
PCOMP    3                      .0879359 HILL
         1       .183    0.      YES     1       .183    0.      YES
         1       .183    0.      YES     1       .183    0.      YES
         1       .183    0.      YES     1       .183    0.      YES
$ Pset: "Shell_Com_05" will be imported as: "pcomp.3"
CQUAD4   101     3       205     206     227     226
CQUAD4   102     3       206     207     228     227
CQUAD4   103     3       207     208     229     228
CQUAD4   104     3       208     209     230     229
CQUAD4   105     3       209     210     231     230
CQUAD4   106     3       210     211     232     231
CQUAD4   107     3       211     212     233     232
CQUAD4   108     3       212     213     234     233
CQUAD4   109     3       213     214     235     234
CQUAD4   110     3       214     215     236     235
CQUAD4   111     3       215     216     237     236
CQUAD4   112     3       216     217     238     237
CQUAD4   113     3       217     218     239     238
CQUAD4   114     3       218     219     240     239
CQUAD4   115     3       219     220     241     240
CQUAD4   116     3       220     221     242     241
CQUAD4   117     3       221     222     243     242
CQUAD4   118     3       222     223     244     243
CQUAD4   119     3       223     224     245     244
CQUAD4   120     3       224     225     246     245
$ ... 230 like lines cut
$ Referenced Material Records
$ Material Record : Plie_Tension
$ Description of Material : Date: 24-Nov-21           Time: 12:36:33
MAT8*    1               158.48907       8.9490538       .3156111
*        4.6487918       4.6487918       4.6487918       .00158
*                                                        2.2330778
*        1.4179074       .0463331        .2547264        .0879359
$ Material Record : Plie_Compression
$ Description of Material : Date: 24-Nov-21           Time: 12:36:33
MAT8*    2               140.93211       9.712304        .3563333
*        4.6487918       4.6487918       4.6487918       .00158
*                                                        2.2330778
*        1.4179074       .0463331        .2547264        .0879359
$ Multipoint Constraints of the Entire Model
$ ID conflict : the PATRAN MPC ID was 1
RBE2     8082    10000   3       205     206     207     208     209
         210     211     212     213     214     215     216     217
         218     219     220     221     222     223     224     225
         248     249     250     251     252     253     254     255
         256     257     258     259     260     261     262     263
         264     265     266
$ Nodes of the Entire Model
GRID*    1                              -108.60488128662 -59.33113861084
*       4.84268188476563
GRID*    2                               -112.1157913208-52.395168304443
*       4.84268188476563
GRID*    3                              -115.18460845947-45.251640319824
*       4.84268188476563
GRID*    4                              -117.79885864258 -37.92932510376
*       4.84268188476563
GRID*    5                              -119.94802856445-30.457750320435
*       4.84268188476563
GRID*    6                              -121.62364959717-22.866830825806
*       4.84268188476563
GRID*    7                              -122.81946563721 -15.18497467041
*       4.84268188476563
GRID*    8                              -123.53060913086-7.4426651000977
*       4.84268188476563
GRID*    9                              -123.75417327881.329075455665588
*       4.84268188476563
GRID*    10                             -123.48933410645 8.098708152771
*       4.84268188476563
GRID*    11                             -122.73722076416 15.836012840271
*       4.84268188476563
GRID*    12                             -121.5006256103523.5117416381836
*       4.84268188476563
GRID*    13                             -119.7844161987331.0949726104736
*       4.84268188476563
GRID*    14                             -117.5955200195338.5551376342773
*       4.84268188476563
GRID*    15                             -114.9428405761745.8622779846191
*       4.84268188476563
GRID*    16                             -111.8364181518652.9888725280762
*       4.84268188476563
GRID*    17                             -108.2882919311559.9070091247559
*       4.84268188476563
GRID*    18                              -104.312782287666.5886535644531
*       4.84268188476563
GRID*    19                              -99.9258804321373.0070037841797
*       4.84268188476563
GRID*    20                             -95.14504241943479.1367492675781
*       4.84268188476563
$ ... 9568 like lines cut
GRID     10000           0.      0.      300.
GRID*    10001                          124.986587524414-1.8309508562088
*       -6.9960022205-14
GRID*    10002                           124.35912322998-.16476102173328
*       2.39217066764832
GRID*    10003                          123.7083663940431.48595345020294
*       4.78869771957397
GRID*    10004                          123.0345535278323.12119364738464
*       7.18971347808838
GRID*    10005                          122.3380661010744.74055242538452
*        9.594783782959
GRID*    10006                          121.6191711425786.34392356872559
*        12.003945350647
GRID*    10007                          120.8781204223637.93119716644287
*       14.4172649383545
GRID*    10008                          120.115287780762 9.5019912719727
*       16.8344249725342
GRID*    10009                          119.33094024658211.0561189651489
*       19.2554264068604
GRID*    10010                          118.52531433105512.5934295654297
*       21.6803665161133
GRID*    10011                          117.69878387451214.1135225296021
*       24.1089611053467
GRID*    10012                          116.85160064697315.6161890029907
*       26.5412616729736
GRID*    10013                          115.98400878906317.1012344360352
*        28.977367401123
GRID*    10014                          115.096374511719 18.568229675293
*       31.4170169830322
GRID*    10015                          114.18895721435520.0169525146484
*       33.8603096008301
GRID*    10016                          113.261985778809 21.447193145752
*       36.3073921203613
GRID*    10017                           112.3159179687522.8584060668945
*        38.757869720459
GRID*    10018                          111.35098266601624.2503929138184
*       41.2119560241699
GRID*    10019                          110.36738586425825.6229934692383
*       43.6699752807617
GRID*    10020                          109.36564636230526.9755744934082
*       46.1314430236816
$ ... 3464 like lines cut
$ Loads for Load Case : Default
SPCADD   2       1       3
LOAD     2       1.      1.      1       1.      3
$ Displacement Constraints of Load Set : DV
SPC1     1       3       52      THRU    102
SPC1     1       3       155     THRU    203
$ Displacement Constraints of Load Set : D_12456
SPC1     3       12456   187
$ Deform Body Contact LBC set: H1C
BCBODY1  1               3D      DEFORM  5
BSURF    5       3000    3001    3002    3003    3004    3005    3006
         3007    3008    3009    3010    3011    3012    3013    3014
         3015    3016    3017    3018    3019    3020    3021    3022
         3023    3024    3025    3026    3027    3028    3029    3030
         3031    3032    3033    3034    3035    3036    3037    3038
         3039    3040    3041    3042    3043    3044    3045    3046
         3047    3048    3049    3050    3051    3052    3053    3054
         3055    3056    3057    3058    3059    3060    3061    3062
         3063    3064    3065    3066    3067    3068    3069    3070
         3071    3072    3073    3074    3075    3076    3077    3078
         3079    3080    3081    3082    3083    3084    3085    3086
         3087    3088    3089    3090    3091    3092    3093    3094
         3095    3096    3097    3098    3099    3100    3101    3102
         3103    3104    3105    3106    3107    3108    3109    3110
         3111    3112    3113    3114    3115    3116    3117    3118
         3119    3120    3121    3122    3123    3124    3125    3126
         3127    3128    3129    3130    3131    3132    3133    3134
         3135    3136    3137    3138    3139    3140    3141    3142
         3143    3144    3145    3146    3147    3148    3149    3150
         3151    3152    3153    3154    3155    3156    3157    3158
         3159    3160    3161    3162    3163    3164    3165    3166
$ ... 89 like lines cut
$ Deform Body Contact LBC set: H2C
BCBODY1  2               3D      DEFORM  6
BSURF    6       7000    7001    7002    7003    7004    7005    7006
         7007    7008    7009    7010    7011    7012    7013    7014
         7015    7016    7017    7018    7019    7020    7021    7022
         7023    7024    7025    7026    7027    7028    7029    7030
         7031    7032    7033    7034    7035    7036    7037    7038
         7039    7040    7041    7042    7043    7044    7045    7046
         7047    7048    7049    7050    7051    7052    7053    7054
         7055    7056    7057    7058    7059    7060    7061    7062
         7063    7064    7065    7066    7067    7068    7069    7070
         7071    7072    7073    7074    7075    7076    7077    7078
         7079    7080    7081    7082    7083    7084    7085    7086
         7087    7088    7089    7090    7091    7092    7093    7094
         7095    7096    7097    7098    7099    7100    7101    7102
         7103    7104    7105    7106    7107    7108    7109    7110
         7111    7112    7113    7114    7115    7116    7117    7118
         7119    7120    7121    7122    7123    7124    7125    7126
         7127    7128    7129    7130    7131    7132    7133    7134
         7135    7136    7137    7138    7139    7140    7141    7142
         7143    7144    7145    7146    7147    7148    7149    7150
         7151    7152    7153    7154    7155    7156    7157    7158
         7159    7160    7161    7162    7163    7164    7165    7166
$ ... 89 like lines cut
$ Deform Body Contact LBC set: RC
BCBODY1  3               3D      DEFORM  8
BSURF    8       7872    7873    7874    7875    7876    7877    7878
         7879    7880    7881    7882    7883    7884    7885    7886
         7887    7888    7889    7890    7891    7892    7893    7894
         7895    7896    7897    7898    7899    7900    7901    7902
         7903    7904    7905    7906    7907    7908    7909    7910
         7911    7912    7913    7914    7915    7916    7917    7918
         7919    7920    7921    7922    7923    7924    7925    7926
         7927    7928    7929    7930    7931    7932    7933    7934
         7935    7936    7937    7938    7939    7940    7941    7942
         7943    7944    7945    7946    7947    7948    7949    7950
         7951    7952    7953    7954    7955    7956    7957    7958
         7959    7960    7961    7962    7963    7964    7965    7966
         7967    7968    7969    7970    7971    7972    7973    7974
         7975    7976    7977    7978    7979    7980    7981    7982
         7983    7984    7985    7986    7987    7988    7989    7990
         7991    7992    7993    7994    7995    7996    7997    7998
         7999    8000    8001    8002    8003    8004    8005    8006
         8007    8008    8009    8010    8011    8012    8013    8014
         8015    8016    8017    8018    8019    8020    8021    8022
         8023    8024    8025    8026    8027    8028    8029    8030
         8031    8032    8033    8034    8035    8036    8037    8038
$ ... 6 like lines cut
$ Deform Body Contact LBC set: RFC
BCBODY1  4               3D      DEFORM  2
BSURF    2       1       2       3       4       5       6       7
         8       9       10      11      12      13      14      15
         16      17      18      19      20      21      22      23
         24      25      26      27      28      29      30      31
         32      33      34      35      36      37      38      39
         40      41      42      43      44      45      46      47
         48      49      50      51      52      53      54      55
         56      57      58      59      60      61      62      63
         64      65      66      67      68      69      70      71
         72      73      74      75      76      77      78      79
         80      81      82      83      84      85      86      87
         88      89      90      91      92      93      94      95
         96      97      98      99      100     101     102     103
         104     105     106     107     108     109     110     111
         112     113     114     115     116     117     118     119
         120     121     122     123     124     125     126     127
         128     129     130     131     132     133     134     135
         136     137     138     139     140
$ Deform Body Contact LBC set: VC
BCBODY1  5               3D      DEFORM  3
BSURF    3       1000    1001    1002    1003    1004    1005    1006
         1007    1008    1009    1010    1011    1012    1013    1014
         1015    1016    1017    1018    1019    1020    1021    1022
         1023    1024    1025    1026    1027    1028    1029    1030
         1031    1032    1033    1034    1035    1036    1037    1038
         1039    1040    1041    1042    1043    1044    1045    1046
         1047    1048    1049    1050    1051    1052    1053    1054
         1055    1056    1057    1058    1059    1060    1061    1062
         1063    1064    1065    1066    1067    1068    1069    1070
         1071    1072    1073    1074    1075    1076    1077    1078
         1079    1080    1081    1082    1083    1084    1085    1086
         1087    1088    1089    1090    1091    1092    1093    1094
         1095    1096    1097    1098    1099    1100    1101    1102
         1103    1104    1105    1106    1107    1108    1109    1110
         1111    1112    1113    1114    1115    1116    1117    1118
         1119    1120    1121    1122    1123    1124    1125    1126
         1127    1128    1129    1130    1131    1132    1133    1134
         1135    1136    1137    1138    1139    1140    1141    1142
         1143    1144    1145    1146    1147    1148    1149    1150
         1151    1152    1153    1154    1155    1156    1157    1158
         1159    1160    1161    1162    1163    1164    1165    1166
$ ... 174 like lines cut
$ Nodal Forces of Load Set : L
FORCE    1       10000   0       15.     0.      0.      -1.
$ Nodal Forces of Load Set : L
MOMENT   3       10000   0       0.      .57735  .57735  .57735
$ Referenced Coordinate Frames
ENDDATA 2ee039c3
