$ MSC.Nastran input file created on November  29, 2021 at 15:01:46 by
$ Patran 2021.1  (Student Edition)
$ Direct Text Input for Nastran System Cell Section
$ Direct Text Input for File Management Section
$ Direct Text Input for Executive Control
$ Linear Static Analysis, Database
SOL 101
CEND
$ Direct Text Input for Global Case Control Data
TITLE = MSC.Nastran job created on 28-Nov-21 at 19:39:56
ECHO = NONE
   BCONTACT = 0
SUBCASE 1
   SUBTITLE=Default
$ Direct Text Input for this Subcase
   NLSTEP = 1
   BCONTACT = 1
   SPC = 2
   LOAD = 2
   DISPLACEMENT(SORT1,REAL)=ALL
   SPCFORCES(SORT1,REAL)=ALL
   STRESS(SORT1,REAL,VONMISES,BILIN)=ALL
   BOUTPUT(SORT1,REAL)=ALL
BEGIN BULK
$ Direct Text Input for Bulk Data
MDLPRM   HDF5    0
PARAM   PRTMAXIM YES
BCPARA   0       NLGLUE  0
NLSTEP   1
BCTABL1  0       8001    8002    8003    8004    8005    8006    8007
         8008    8009    8010    8011    8012    8013    8014    8015
BCONECT  8001    3001            1       1
BCONECT  8002    3002            2       1
BCONECT  8003    3003            3       1
BCONECT  8004    3004            4       1
BCONECT  8005    3005            5       1
BCONECT  8006    3006            2       2
BCONECT  8007    3007            3       2
BCONECT  8008    3008            4       2
BCONECT  8009    3009            5       2
BCONECT  8010    3010            3       3
BCONECT  8011    3011            4       3
BCONECT  8012    3012            5       3
BCONECT  8013    3013            4       4
BCONECT  8014    3014            5       4
BCONECT  8015    3015            5       5
BCONPRG  3001            ERROR   10.
BCONPRG  3002            ERROR   10.     IGLUE   4       ISEARCH 2
BCONPRG  3003            ERROR   10.     IGLUE   4       ISEARCH 2
BCONPRG  3004            ERROR   10.     IGLUE   4       ISEARCH 1
BCONPRG  3005            ERROR   10.     IGLUE   4       ISEARCH 1
BCONPRG  3006            ERROR   10.
BCONPRG  3007            ERROR   10.     IGLUE   4       ISEARCH 2
BCONPRG  3008            ERROR   10.     IGLUE   4       ISEARCH 1
BCONPRG  3009            ERROR   10.     IGLUE   4       ISEARCH 1
BCONPRG  3010            ERROR   10.
BCONPRG  3011            ERROR   10.     IGLUE   4       ISEARCH 1
BCONPRG  3012            ERROR   10.     IGLUE   4       ISEARCH 1
BCONPRG  3013            ERROR   10.
BCONPRG  3014            ERROR   10.     IGLUE   4       ISEARCH 1
BCONPRG  3015            ERROR   10.
BCTABL1  1       8001    8002    8003    8004    8005    8006    8007
         8008    8009    8010    8011    8012    8013    8014    8015
$ Elements and Element Properties for region : Shell_V
$ Composite Property Reference Material: Lam_V
$ Composite Material Description :
PCOMP    1                      .0879359 HILL
         1       .183    0.      YES     1       .183    0.      YES
         1       .183    0.      YES     1       .183    0.      YES
         1       .183    0.      YES     1       .183    0.      YES
         1       .183    0.      YES     1       .183    0.      YES
         1       .183    0.      YES     1       .183    0.      YES
$ Pset: "Shell_V" will be imported as: "pcomp.1"
CQUAD4   2569    1       16361   16362   16463   16462
CQUAD4   2570    1       16362   16363   16464   16463
CQUAD4   2571    1       16363   16364   16465   16464
CQUAD4   2572    1       16364   16365   16466   16465
CQUAD4   2573    1       16365   16366   16467   16466
CQUAD4   2574    1       16366   16367   16468   16467
CQUAD4   2575    1       16367   16368   16469   16468
CQUAD4   2576    1       16368   16369   16470   16469
CQUAD4   2577    1       16369   16370   16471   16470
CQUAD4   2578    1       16370   16371   16472   16471
CQUAD4   2579    1       16371   16372   16473   16472
CQUAD4   2580    1       16372   16373   16474   16473
CQUAD4   2581    1       16373   16374   16475   16474
CQUAD4   2582    1       16374   16375   16476   16475
CQUAD4   2583    1       16375   16376   16477   16476
CQUAD4   2584    1       16376   16377   16478   16477
CQUAD4   2585    1       16377   16378   16479   16478
CQUAD4   2586    1       16378   16379   16480   16479
CQUAD4   2587    1       16379   16380   16481   16480
CQUAD4   2588    1       16380   16381   16482   16481
$ ... 1180 like lines cut
$ Elements and Element Properties for region : Shell_RFI
$ Composite Property Reference Material: Lam_RFI
$ Composite Material Description :
PCOMP    2                      .0879359 HILL
         2       .183    0.      YES     2       .183    0.      YES
         2       .183    0.      YES     2       .183    0.      YES
         2       .183    0.      YES     2       .183    0.      YES
         2       .183    0.      YES     2       .183    0.      YES
         2       .183    0.      YES     2       .183    0.      YES
         2       .183    0.      YES     2       .183    0.      YES
$ Pset: "Shell_RFI" will be imported as: "pcomp.2"
CQUAD4   1       2       1       2       103     102
CQUAD4   2       2       2       3       104     103
CQUAD4   3       2       3       4       105     104
CQUAD4   4       2       4       5       106     105
CQUAD4   5       2       5       6       107     106
CQUAD4   6       2       6       7       108     107
CQUAD4   7       2       7       8       109     108
CQUAD4   8       2       8       9       110     109
CQUAD4   9       2       9       10      111     110
CQUAD4   10      2       10      11      112     111
CQUAD4   11      2       11      12      113     112
CQUAD4   12      2       12      13      114     113
CQUAD4   13      2       13      14      115     114
CQUAD4   14      2       14      15      116     115
CQUAD4   15      2       15      16      117     116
CQUAD4   16      2       16      17      118     117
CQUAD4   17      2       17      18      119     118
CQUAD4   18      2       18      19      120     119
CQUAD4   19      2       19      20      121     120
CQUAD4   20      2       20      21      122     121
$ ... 180 like lines cut
$ Elements and Element Properties for region : Shell_RFS
$ Composite Property Reference Material: Lam_RFS
$ Composite Material Description :
PCOMP    3                      .0879359 HILL
         2       .183    0.      YES     2       .183    0.      YES
         2       .183    0.      YES     2       .183    0.      YES
         2       .183    0.      YES
$ Pset: "Shell_RFS" will be imported as: "pcomp.3"
CQUAD4   201     3       205     11543   11624   11623
CQUAD4   202     3       11543   11544   11625   11624
CQUAD4   203     3       11544   11545   11626   11625
CQUAD4   204     3       11545   206     11627   11626
CQUAD4   205     3       206     11547   11628   11627
CQUAD4   206     3       11547   11548   11629   11628
CQUAD4   207     3       11548   11549   11630   11629
CQUAD4   208     3       11549   207     11631   11630
CQUAD4   209     3       207     11551   11632   11631
CQUAD4   210     3       11551   11552   11633   11632
CQUAD4   211     3       11552   11553   11634   11633
CQUAD4   212     3       11553   208     11635   11634
CQUAD4   213     3       208     11555   11636   11635
CQUAD4   214     3       11555   11556   11637   11636
CQUAD4   215     3       11556   11557   11638   11637
CQUAD4   216     3       11557   209     11639   11638
CQUAD4   217     3       209     11559   11640   11639
CQUAD4   218     3       11559   11560   11641   11640
CQUAD4   219     3       11560   11561   11642   11641
CQUAD4   220     3       11561   210     11643   11642
$ ... 140 like lines cut
$ Elements and Element Properties for region : Shell_H1
$ Composite Property Reference Material: Lam_H1
$ Composite Material Description :
PCOMP    4                      .0879359 HILL
         1       .183    0.      YES     1       .183    0.      YES
         1       .183    0.      YES     1       .183    0.      YES
         1       .183    0.      YES
$ Pset: "Shell_H1" will be imported as: "pcomp.4"
CQUAD4   1081    4       13329   13330   13351   13350
CQUAD4   1082    4       13330   13331   13352   13351
CQUAD4   1083    4       13331   13332   13353   13352
CQUAD4   1084    4       13332   13333   13354   13353
CQUAD4   1085    4       13333   13334   13355   13354
CQUAD4   1086    4       13334   13335   13356   13355
CQUAD4   1087    4       13335   13336   13357   13356
CQUAD4   1088    4       13336   13337   13358   13357
CQUAD4   1089    4       13337   13338   13359   13358
CQUAD4   1090    4       13338   13339   13360   13359
CQUAD4   1091    4       13339   13340   13361   13360
CQUAD4   1092    4       13340   13341   13362   13361
CQUAD4   1093    4       13341   13342   13363   13362
CQUAD4   1094    4       13342   13343   13364   13363
CQUAD4   1095    4       13343   13344   13365   13364
CQUAD4   1096    4       13344   13345   13366   13365
CQUAD4   1097    4       13345   13346   13367   13366
CQUAD4   1098    4       13346   13347   13368   13367
CQUAD4   1099    4       13347   13348   13369   13368
CQUAD4   1100    4       13348   13349   13370   13369
$ ... 1468 like lines cut
$ Elements and Element Properties for region : Shell_R1
$ Composite Property Reference Material: Lam_R1
$ Composite Material Description :
PCOMP    5                      .0879359 HILL
         2       .183    0.      YES     2       .183    0.      YES
         2       .183    0.      YES     2       .183    0.      YES
         2       .183    0.      YES
$ Pset: "Shell_R1" will be imported as: "pcomp.5"
CQUAD4   3769    5       18785   18786   18847   18846
CQUAD4   3770    5       18786   18787   18848   18847
CQUAD4   3771    5       18787   18788   18849   18848
CQUAD4   3772    5       18788   18789   18850   18849
CQUAD4   3773    5       18789   18790   18851   18850
CQUAD4   3774    5       18790   18791   18852   18851
CQUAD4   3775    5       18791   18792   18853   18852
CQUAD4   3776    5       18792   18793   18854   18853
CQUAD4   3777    5       18793   18794   18855   18854
CQUAD4   3778    5       18794   18795   18856   18855
CQUAD4   3779    5       18795   18796   18857   18856
CQUAD4   3780    5       18796   18797   18858   18857
CQUAD4   3781    5       18797   18798   18859   18858
CQUAD4   3782    5       18798   18799   18860   18859
CQUAD4   3783    5       18799   18800   18861   18860
CQUAD4   3784    5       18800   18801   18862   18861
CQUAD4   3785    5       18801   18802   18863   18862
CQUAD4   3786    5       18802   18803   18864   18863
CQUAD4   3787    5       18803   18804   18865   18864
CQUAD4   3788    5       18804   18805   18866   18865
$ ... 100 like lines cut
$ Elements and Element Properties for region : Shell_R2
$ Composite Property Reference Material: Lam_R2
$ Composite Material Description :
PCOMP    6                      .0879359 HILL
         2       .183    0.      YES     2       .183    0.      YES
         2       .183    0.      YES
$ Pset: "Shell_R2" will be imported as: "pcomp.6"
CQUAD4   3889    6       19028   19029   19085   19084
CQUAD4   3890    6       19029   19030   19086   19085
CQUAD4   3891    6       19030   19031   19087   19086
CQUAD4   3892    6       19031   19032   19088   19087
CQUAD4   3893    6       19032   19033   19089   19088
CQUAD4   3894    6       19033   19034   19090   19089
CQUAD4   3895    6       19034   19035   19091   19090
CQUAD4   3896    6       19035   19036   19092   19091
CQUAD4   3897    6       19036   19037   19093   19092
CQUAD4   3898    6       19037   19038   19094   19093
CQUAD4   3899    6       19038   19039   19095   19094
CQUAD4   3900    6       19039   19040   19096   19095
CQUAD4   3901    6       19040   19041   19097   19096
CQUAD4   3902    6       19041   19042   19098   19097
CQUAD4   3903    6       19042   19043   19099   19098
CQUAD4   3904    6       19043   19044   19100   19099
CQUAD4   3905    6       19044   19045   19101   19100
CQUAD4   3906    6       19045   19046   19102   19101
CQUAD4   3907    6       19046   19047   19103   19102
CQUAD4   3908    6       19047   19048   19104   19103
$ ... 90 like lines cut
$ Elements and Element Properties for region : Shell_R3
$ Composite Property Reference Material: Lam_R3
$ Composite Material Description :
PCOMP    7                      .0879359 HILL
         2       .183    0.      YES     2       .183    0.      YES
$ Pset: "Shell_R3" will be imported as: "pcomp.7"
CQUAD4   3999    7       19251   19252   19303   19302
CQUAD4   4000    7       19252   19253   19304   19303
CQUAD4   4001    7       19253   19254   19305   19304
CQUAD4   4002    7       19254   19255   19306   19305
CQUAD4   4003    7       19255   19256   19307   19306
CQUAD4   4004    7       19256   19257   19308   19307
CQUAD4   4005    7       19257   19258   19309   19308
CQUAD4   4006    7       19258   19259   19310   19309
CQUAD4   4007    7       19259   19260   19311   19310
CQUAD4   4008    7       19260   19261   19312   19311
CQUAD4   4009    7       19261   19262   19313   19312
CQUAD4   4010    7       19262   19263   19314   19313
CQUAD4   4011    7       19263   19264   19315   19314
CQUAD4   4012    7       19264   19265   19316   19315
CQUAD4   4013    7       19265   19266   19317   19316
CQUAD4   4014    7       19266   19267   19318   19317
CQUAD4   4015    7       19267   19268   19319   19318
CQUAD4   4016    7       19268   19269   19320   19319
CQUAD4   4017    7       19269   19270   19321   19320
CQUAD4   4018    7       19270   19271   19322   19321
$ ... 80 like lines cut
$ Referenced Material Records
$ Material Record : Plie_Tension
$ Description of Material : Date: 24-Nov-21           Time: 12:36:33
MAT8*    2               158.48907       8.9490538       .3156111
*        4.6487918       4.6487918       4.6487918       .00158
*                                                        2.2330778
*        1.4179074       .0463331        .2547264        .0879359
$ Material Record : Plie_Compression
$ Description of Material : Date: 24-Nov-21           Time: 12:36:33
MAT8*    1               140.93211       9.712304        .3563333
*        4.6487918       4.6487918       4.6487918       .00158
*                                                        2.2330778
*        1.4179074       .0463331        .2547264        .0879359
$ Multipoint Constraints of the Entire Model
$ ID conflict : the PATRAN MPC ID was 1
RBE2     4099    10000   3       205     206     207     208     209
         210     211     212     213     214     215     216     217
         218     219     220     221     222     223     224     225
         248     249     250     251     252     253     254     255
         256     257     258     259     260     261     262     263
         264     265     266     11543   11544   11545   11547   11548
         11549   11551   11552   11553   11555   11556   11557   11559
         11560   11561   11563   11564   11565   11567   11568   11569
         11571   11572   11573   11575   11576   11577   11579   11580
         11581   11583   11584   11585   11587   11588   11589   11591
         11592   11593   11595   11596   11597   11599   11600   11601
         11603   11604   11605   11607   11608   11609   11611   11612
         11613   11615   11616   11617   11619   11620   11621   11705
         11706   11707   11709   11710   11711   11713   11714   11715
         11717   11718   11719   11721   11722   11723   11725   11726
         11727   11729   11730   11731   11733   11734   11735   11737
         11738   11739   11741   11742   11743   11745   11746   11747
         11749   11750   11751   11753   11754   11755   11757   11758
         11759   11761   11762   11763   11765   11766   11767   11769
         11770   11771   11773   11774   11775   11777   11778   11779
         11781   11782   11783
$ Nodes of the Entire Model
GRID*    1                              -108.60488128662 -59.33113861084
*       4.84268188476563
GRID*    2                              -110.41505432129-55.890251159668
*       4.84268188476563
GRID*    3                               -112.1157913208-52.395164489746
*       4.84268188476563
GRID*    4                              -113.70664215088-48.846733093262
*       4.84268188476563
GRID*    5                              -115.18460845947-45.251640319824
*       4.84268188476563
GRID*    6                              -116.54915618896-41.611270904541
*       4.84268188476563
GRID*    7                              -117.79885864258 -37.92932510376
*       4.84268188476563
GRID*    8                              -118.93188476563-34.211280822754
*       4.84268188476563
GRID*    9                              -119.94802856445-30.457750320435
*       4.84268188476563
GRID*    10                             -120.84543609619 -26.67554473877
*       4.84268188476563
GRID*    11                             -121.62364959717-22.866830825806
*       4.84268188476563
GRID*    12                             -122.28202819824-19.034461975098
*       4.84268188476563
GRID*    13                             -122.81946563721 -15.18497467041
*       4.84268188476563
GRID*    14                             -123.23590087891-11.318850517273
*       4.84268188476563
GRID*    15                             -123.53060913086-7.4426016807556
*       4.84268188476563
GRID*    16                             -123.70342254639-3.5592517852783
*       4.84268188476563
GRID*    17                             -123.75417327881.329075455665588
*       4.84268188476563
GRID*    18                             -123.682800292974.21526527404785
*       4.84268188476563
GRID*    19                             -123.48933410645 8.098708152771
*       4.84268188476563
GRID*    20                             -123.1740112304711.9736137390137
*       4.84268188476563
$ ... 446 like lines cut
GRID     10000           0.      0.      300.
GRID*    11343                          112.115798950195 52.395149230957
*       4.84268188476563
GRID*    11344                          113.70664978027348.8467178344727
*       4.84268188476563
GRID*    11345                          115.18461608886745.2516250610352
*       4.84268188476563
GRID*    11346                          116.549163818359 41.611255645752
*       4.84268188476563
GRID*    11347                          117.79886627197337.9293098449707
*       4.84268188476563
GRID*    11348                          118.93188476562534.2112655639648
*       4.84268188476563
GRID*    11349                          119.94803619384830.4577350616455
*       4.84268188476563
GRID*    11350                          120.84544372558626.6755294799805
*       4.84268188476563
GRID*    11351                          121.62365722656322.8668155670166
*       4.84268188476563
GRID*    11352                          122.28202819824219.0344409942627
*       4.84268188476563
GRID*    11353                          122.81946563720715.1849536895752
*       4.84268188476563
GRID*    11354                          123.23590850830111.3188304901123
*       4.84268188476563
GRID*    11355                          123.5306167602547.44258117675781
*       4.84268188476563
GRID*    11356                          123.7034225463873.55923748016357
*       4.84268188476563
GRID*    11357                          123.754173278809-.32908943295479
*       4.84268188476563
GRID*    11358                          123.682800292969-4.2152905464172
*       4.84268188476563
GRID*    11359                          123.489334106445-8.0987329483032
*       4.84268188476563
GRID*    11360                          123.174011230469-11.973627090454
*       4.84268188476563
GRID*    11361                           122.73722076416-15.836026191711
*       4.84268188476563
GRID*    11362                          122.179069519043-19.684495925903
*       4.84268188476563
$ ... 13130 like lines cut
$ Loads for Load Case : Default
SPCADD   2       1       3
LOAD     2       1.      1.      1       1.      3
$ Displacement Constraints of Load Set : DV
SPC1     1       3       102     THRU    202
SPC1     1       3       11443   THRU    11541
$ Displacement Constraints of Load Set : D_12456
SPC1     3       12456   117
$ Deform Body Contact LBC set: H1C
BCBODY1  1               3D      DEFORM  10
BSURF    10      1081    1082    1083    1084    1085    1086    1087
         1088    1089    1090    1091    1092    1093    1094    1095
         1096    1097    1098    1099    1100    1101    1102    1103
         1104    1105    1106    1107    1108    1109    1110    1111
         1112    1113    1114    1115    1116    1117    1118    1119
         1120    1121    1122    1123    1124    1125    1126    1127
         1128    1129    1130    1131    1132    1133    1134    1135
         1136    1137    1138    1139    1140    1141    1142    1143
         1144    1145    1146    1147    1148    1149    1150    1151
         1152    1153    1154    1155    1156    1157    1158    1159
         1160    1161    1162    1163    1164    1165    1166    1167
         1168    1169    1170    1171    1172    1173    1174    1175
         1176    1177    1178    1179    1180    1181    1182    1183
         1184    1185    1186    1187    1188    1189    1190    1191
         1192    1193    1194    1195    1196    1197    1198    1199
         1200    1201    1202    1203    1204    1205    1206    1207
         1208    1209    1210    1211    1212    1213    1214    1215
         1216    1217    1218    1219    1220    1221    1222    1223
         1224    1225    1226    1227    1228    1229    1230    1231
         1232    1233    1234    1235    1236    1237    1238    1239
         1240    1241    1242    1243    1244    1245    1246    1247
$ ... 73 like lines cut
$ Deform Body Contact LBC set: H2C
BCBODY1  2               3D      DEFORM  11
BSURF    11      1825    1826    1827    1828    1829    1830    1831
         1832    1833    1834    1835    1836    1837    1838    1839
         1840    1841    1842    1843    1844    1845    1846    1847
         1848    1849    1850    1851    1852    1853    1854    1855
         1856    1857    1858    1859    1860    1861    1862    1863
         1864    1865    1866    1867    1868    1869    1870    1871
         1872    1873    1874    1875    1876    1877    1878    1879
         1880    1881    1882    1883    1884    1885    1886    1887
         1888    1889    1890    1891    1892    1893    1894    1895
         1896    1897    1898    1899    1900    1901    1902    1903
         1904    1905    1906    1907    1908    1909    1910    1911
         1912    1913    1914    1915    1916    1917    1918    1919
         1920    1921    1922    1923    1924    1925    1926    1927
         1928    1929    1930    1931    1932    1933    1934    1935
         1936    1937    1938    1939    1940    1941    1942    1943
         1944    1945    1946    1947    1948    1949    1950    1951
         1952    1953    1954    1955    1956    1957    1958    1959
         1960    1961    1962    1963    1964    1965    1966    1967
         1968    1969    1970    1971    1972    1973    1974    1975
         1976    1977    1978    1979    1980    1981    1982    1983
         1984    1985    1986    1987    1988    1989    1990    1991
$ ... 73 like lines cut
$ Deform Body Contact LBC set: RC
BCBODY1  3               3D      DEFORM  12
BSURF    12      3769    3770    3771    3772    3773    3774    3775
         3776    3777    3778    3779    3780    3781    3782    3783
         3784    3785    3786    3787    3788    3789    3790    3791
         3792    3793    3794    3795    3796    3797    3798    3799
         3800    3801    3802    3803    3804    3805    3806    3807
         3808    3809    3810    3811    3812    3813    3814    3815
         3816    3817    3818    3819    3820    3821    3822    3823
         3824    3825    3826    3827    3828    3829    3830    3831
         3832    3833    3834    3835    3836    3837    3838    3839
         3840    3841    3842    3843    3844    3845    3846    3847
         3848    3849    3850    3851    3852    3853    3854    3855
         3856    3857    3858    3859    3860    3861    3862    3863
         3864    3865    3866    3867    3868    3869    3870    3871
         3872    3873    3874    3875    3876    3877    3878    3879
         3880    3881    3882    3883    3884    3885    3886    3887
         3888    3889    3890    3891    3892    3893    3894    3895
         3896    3897    3898    3899    3900    3901    3902    3903
         3904    3905    3906    3907    3908    3909    3910    3911
         3912    3913    3914    3915    3916    3917    3918    3919
         3920    3921    3922    3923    3924    3925    3926    3927
         3928    3929    3930    3931    3932    3933    3934    3935
$ ... 21 like lines cut
$ Deform Body Contact LBC set: RFC
BCBODY1  4               3D      DEFORM  2
BSURF    2       1       2       3       4       5       6       7
         8       9       10      11      12      13      14      15
         16      17      18      19      20      21      22      23
         24      25      26      27      28      29      30      31
         32      33      34      35      36      37      38      39
         40      41      42      43      44      45      46      47
         48      49      50      51      52      53      54      55
         56      57      58      59      60      61      62      63
         64      65      66      67      68      69      70      71
         72      73      74      75      76      77      78      79
         80      81      82      83      84      85      86      87
         88      89      90      91      92      93      94      95
         96      97      98      99      100     101     102     103
         104     105     106     107     108     109     110     111
         112     113     114     115     116     117     118     119
         120     121     122     123     124     125     126     127
         128     129     130     131     132     133     134     135
         136     137     138     139     140     141     142     143
         144     145     146     147     148     149     150     151
         152     153     154     155     156     157     158     159
         160     161     162     163     164     165     166     167
$ ... 25 like lines cut
$ Deform Body Contact LBC set: VC
BCBODY1  5               3D      DEFORM  9
BSURF    9       2569    2570    2571    2572    2573    2574    2575
         2576    2577    2578    2579    2580    2581    2582    2583
         2584    2585    2586    2587    2588    2589    2590    2591
         2592    2593    2594    2595    2596    2597    2598    2599
         2600    2601    2602    2603    2604    2605    2606    2607
         2608    2609    2610    2611    2612    2613    2614    2615
         2616    2617    2618    2619    2620    2621    2622    2623
         2624    2625    2626    2627    2628    2629    2630    2631
         2632    2633    2634    2635    2636    2637    2638    2639
         2640    2641    2642    2643    2644    2645    2646    2647
         2648    2649    2650    2651    2652    2653    2654    2655
         2656    2657    2658    2659    2660    2661    2662    2663
         2664    2665    2666    2667    2668    2669    2670    2671
         2672    2673    2674    2675    2676    2677    2678    2679
         2680    2681    2682    2683    2684    2685    2686    2687
         2688    2689    2690    2691    2692    2693    2694    2695
         2696    2697    2698    2699    2700    2701    2702    2703
         2704    2705    2706    2707    2708    2709    2710    2711
         2712    2713    2714    2715    2716    2717    2718    2719
         2720    2721    2722    2723    2724    2725    2726    2727
         2728    2729    2730    2731    2732    2733    2734    2735
$ ... 130 like lines cut
$ Nodal Forces of Load Set : L
FORCE    1       10000   0       15.     0.      0.      -1.
$ Nodal Forces of Load Set : L
MOMENT   3       10000   0       0.      .57735  .57735  .57735
$ Referenced Coordinate Frames
ENDDATA 5d554189
