$ MSC.Nastran input file created on December  01, 2021 at 12:35:26 by
$ Patran 2021.1  (Student Edition)
$ Direct Text Input for Nastran System Cell Section
$ Direct Text Input for File Management Section
$ Direct Text Input for Executive Control
$ Linear Static Analysis, Database
SOL 101
CEND
$ Direct Text Input for Global Case Control Data
TITLE = MSC.Nastran job created on 30-Nov-21 at 00:22:03
ECHO = NONE
   BCONTACT = 0
SUBCASE 1
   SUBTITLE=Default
   NLSTEP = 1
   BCONTACT = 1
   SPC = 2
   LOAD = 2
   DISPLACEMENT(SORT1,REAL)=ALL
   SPCFORCES(SORT1,REAL)=ALL
   STRESS(SORT1,REAL,VONMISES,BILIN)=ALL
   BOUTPUT(SORT1,REAL)=ALL
$ Direct Text Input for this Subcase
BEGIN BULK
$ Direct Text Input for Bulk Data
MDLPRM   HDF5    0
PARAM   PRTMAXIM YES
BCPARA   0       NLGLUE  0
NLSTEP   1
BCTABL1  0       8001    8002    8003    8004    8005    8006    8007
         8008    8009    8010
BCONECT  8001    3001            2       1
BCONECT  8002    3002            3       1
BCONECT  8003    3003            3       2
BCONECT  8004    3004            5       1
BCONECT  8005    3005            5       2
BCONECT  8006    3006            6       1
BCONECT  8007    3007            6       2
BCONECT  8008    3008            6       3
BCONECT  8009    3009            6       4
BCONECT  8010    3010            6       5
BCONPRG  3001            ERROR   3.      IGLUE   4       ISEARCH 2
         PENALT  1.
BCONPRG  3002            ERROR   3.      IGLUE   4       ISEARCH 1
         PENALT  1.
BCONPRG  3003            ERROR   3.      IGLUE   4       ISEARCH 1
         PENALT  1.
BCONPRG  3004            ERROR   3.      IGLUE   4       ISEARCH 1
         PENALT  1.
BCONPRG  3005            ERROR   3.      IGLUE   4       ISEARCH 1
         PENALT  1.
BCONPRG  3006            ERROR   3.      IGLUE   4       ISEARCH 1
         PENALT  1.
BCONPRG  3007            ERROR   3.      IGLUE   4       ISEARCH 1
         PENALT  1.
BCONPRG  3008            ERROR   3.      IGLUE   4       ISEARCH 1
         PENALT  1.
BCONPRG  3009            ERROR   3.      IGLUE   4       ISEARCH 1
         PENALT  1.
BCONPRG  3010            ERROR   3.      IGLUE   4       ISEARCH 1
         PENALT  1.
BCTABL1  1       8001    8002    8003    8004    8005    8006    8007
         8008    8009    8010
$ Elements and Element Properties for region : Shell_Ri
$ Composite Property Reference Material: Lam_Ri
$ Composite Material Description :
PCOMP    1                      .0879359 HILL
         1       .183    0.      YES     1       .183    0.      YES
         1       .183    0.      YES     1       .183    0.      YES
         1       .183    0.      YES     1       .183    0.      YES
         1       .183    0.      YES     1       .183    0.      YES
         1       .183    0.      YES     1       .183    0.      YES
         1       .183    0.      YES
$ Pset: "Shell_Ri" will be imported as: "pcomp.1"
CQUAD4   1       1       1       2       123     122
CQUAD4   2       1       2       3       124     123
CQUAD4   3       1       3       4       125     124
CQUAD4   4       1       4       5       126     125
CQUAD4   5       1       5       6       127     126
CQUAD4   6       1       6       7       128     127
CQUAD4   7       1       7       8       129     128
CQUAD4   8       1       8       9       130     129
CQUAD4   9       1       9       10      131     130
CQUAD4   10      1       10      11      132     131
CQUAD4   11      1       11      12      133     132
CQUAD4   12      1       12      13      134     133
CQUAD4   13      1       13      14      135     134
CQUAD4   14      1       14      15      136     135
CQUAD4   15      1       15      16      137     136
CQUAD4   16      1       16      17      138     137
CQUAD4   17      1       17      18      139     138
CQUAD4   18      1       18      19      140     139
CQUAD4   19      1       19      20      141     140
CQUAD4   20      1       20      21      142     141
$ ... 460 like lines cut
$ Elements and Element Properties for region : Shell_R1
$ Composite Property Reference Material: Lam_R1
$ Composite Material Description :
PCOMP    2                      .0879359 HILL
         1       .183    0.      YES     1       .183    0.      YES
         1       .183    0.      YES     1       .183    0.      YES
         1       .183    0.      YES
$ Pset: "Shell_R1" will be imported as: "pcomp.2"
CQUAD4   4093    2       8333    8334    8435    8434
CQUAD4   4094    2       8334    8335    8436    8435
CQUAD4   4095    2       8335    8336    8437    8436
CQUAD4   4096    2       8336    8337    8438    8437
CQUAD4   4097    2       8337    8338    8439    8438
CQUAD4   4098    2       8338    8339    8440    8439
CQUAD4   4099    2       8339    8340    8441    8440
CQUAD4   4100    2       8340    8341    8442    8441
CQUAD4   4101    2       8341    8342    8443    8442
CQUAD4   4102    2       8342    8343    8444    8443
CQUAD4   4103    2       8343    8344    8445    8444
CQUAD4   4104    2       8344    8345    8446    8445
CQUAD4   4105    2       8345    8346    8447    8446
CQUAD4   4106    2       8346    8347    8448    8447
CQUAD4   4107    2       8347    8348    8449    8448
CQUAD4   4108    2       8348    8349    8450    8449
CQUAD4   4109    2       8349    8350    8451    8450
CQUAD4   4110    2       8350    8351    8452    8451
CQUAD4   4111    2       8351    8352    8453    8452
CQUAD4   4112    2       8352    8353    8454    8453
$ ... 180 like lines cut
$ Elements and Element Properties for region : Shell_R2
$ Composite Property Reference Material: Lam_R2
$ Composite Material Description :
PCOMP    3                      .0879359 HILL
         1       .183    0.      YES     1       .183    0.      YES
         1       .183    0.      YES     1       .183    0.      YES
         1       .183    0.      YES
$ Pset: "Shell_R2" will be imported as: "pcomp.3"
CQUAD4   4293    3       8736    8737    8818    8817
CQUAD4   4294    3       8737    8738    8819    8818
CQUAD4   4295    3       8738    8739    8820    8819
CQUAD4   4296    3       8739    8740    8821    8820
CQUAD4   4297    3       8740    8741    8822    8821
CQUAD4   4298    3       8741    8742    8823    8822
CQUAD4   4299    3       8742    8743    8824    8823
CQUAD4   4300    3       8743    8744    8825    8824
CQUAD4   4301    3       8744    8745    8826    8825
CQUAD4   4302    3       8745    8746    8827    8826
CQUAD4   4303    3       8746    8747    8828    8827
CQUAD4   4304    3       8747    8748    8829    8828
CQUAD4   4305    3       8748    8749    8830    8829
CQUAD4   4306    3       8749    8750    8831    8830
CQUAD4   4307    3       8750    8751    8832    8831
CQUAD4   4308    3       8751    8752    8833    8832
CQUAD4   4309    3       8752    8753    8834    8833
CQUAD4   4310    3       8753    8754    8835    8834
CQUAD4   4311    3       8754    8755    8836    8835
CQUAD4   4312    3       8755    8756    8837    8836
$ ... 140 like lines cut
$ Elements and Element Properties for region : Shell_R3
$ Composite Property Reference Material: Lam_R3
$ Composite Material Description :
PCOMP    4                      .0879359 HILL
         1       .183    0.      YES     1       .183    0.      YES
         1       .183    0.      YES     1       .183    0.      YES
         1       .183    0.      YES
$ Pset: "Shell_R3" will be imported as: "pcomp.4"
CQUAD4   4453    4       9059    9060    9131    9130
CQUAD4   4454    4       9060    9061    9132    9131
CQUAD4   4455    4       9061    9062    9133    9132
CQUAD4   4456    4       9062    9063    9134    9133
CQUAD4   4457    4       9063    9064    9135    9134
CQUAD4   4458    4       9064    9065    9136    9135
CQUAD4   4459    4       9065    9066    9137    9136
CQUAD4   4460    4       9066    9067    9138    9137
CQUAD4   4461    4       9067    9068    9139    9138
CQUAD4   4462    4       9068    9069    9140    9139
CQUAD4   4463    4       9069    9070    9141    9140
CQUAD4   4464    4       9070    9071    9142    9141
CQUAD4   4465    4       9071    9072    9143    9142
CQUAD4   4466    4       9072    9073    9144    9143
CQUAD4   4467    4       9073    9074    9145    9144
CQUAD4   4468    4       9074    9075    9146    9145
CQUAD4   4469    4       9075    9076    9147    9146
CQUAD4   4470    4       9076    9077    9148    9147
CQUAD4   4471    4       9077    9078    9149    9148
CQUAD4   4472    4       9078    9079    9150    9149
$ ... 120 like lines cut
$ Elements and Element Properties for region : Shell_Rs
$ Composite Property Reference Material: Lam_Rs
$ Composite Material Description :
PCOMP    5                      .0879359 HILL
         1       .183    0.      YES     1       .183    0.      YES
         1       .183    0.      YES     1       .183    0.      YES
         1       .183    0.      YES
$ Pset: "Shell_Rs" will be imported as: "pcomp.5"
CQUAD4   4593    5       9342    9343    9404    9403
CQUAD4   4594    5       9343    9344    9405    9404
CQUAD4   4595    5       9344    9345    9406    9405
CQUAD4   4596    5       9345    9346    9407    9406
CQUAD4   4597    5       9346    9347    9408    9407
CQUAD4   4598    5       9347    9348    9409    9408
CQUAD4   4599    5       9348    9349    9410    9409
CQUAD4   4600    5       9349    9350    9411    9410
CQUAD4   4601    5       9350    9351    9412    9411
CQUAD4   4602    5       9351    9352    9413    9412
CQUAD4   4603    5       9352    9353    9414    9413
CQUAD4   4604    5       9353    9354    9415    9414
CQUAD4   4605    5       9354    9355    9416    9415
CQUAD4   4606    5       9355    9356    9417    9416
CQUAD4   4607    5       9356    9357    9418    9417
CQUAD4   4608    5       9357    9358    9419    9418
CQUAD4   4609    5       9358    9359    9420    9419
CQUAD4   4610    5       9359    9360    9421    9420
CQUAD4   4611    5       9360    9361    9422    9421
CQUAD4   4612    5       9361    9362    9423    9422
$ ... 100 like lines cut
$ Elements and Element Properties for region : Shell_V
$ Composite Property Reference Material: Lam_V
$ Composite Material Description :
PCOMP    6                      .0879359 HILL
         2       .183    0.      YES     2       .183    0.      YES
         2       .183    0.      YES     2       .183    0.      YES
         2       .183    0.      YES     2       .183    0.      YES
         2       .183    0.      YES     2       .183    0.      YES
         2       .183    0.      YES     2       .183    0.      YES
         2       .183    0.      YES     2       .183    0.      YES
$ Pset: "Shell_V" will be imported as: "pcomp.6"
CQUAD4   481     6       1423    1424    1535    1534
CQUAD4   482     6       1424    1425    1536    1535
CQUAD4   483     6       1425    1426    1537    1536
CQUAD4   484     6       1426    1427    1538    1537
CQUAD4   485     6       1427    1428    1539    1538
CQUAD4   486     6       1428    1429    1540    1539
CQUAD4   487     6       1429    1430    1541    1540
CQUAD4   488     6       1430    1431    1542    1541
CQUAD4   489     6       1431    1432    1543    1542
CQUAD4   490     6       1432    1433    1544    1543
CQUAD4   491     6       1433    1434    1545    1544
CQUAD4   492     6       1434    1435    1546    1545
CQUAD4   493     6       1435    1436    1547    1546
CQUAD4   494     6       1436    1437    1548    1547
CQUAD4   495     6       1437    1438    1549    1548
CQUAD4   496     6       1438    1439    1550    1549
CQUAD4   497     6       1439    1440    1551    1550
CQUAD4   498     6       1440    1441    1552    1551
CQUAD4   499     6       1441    1442    1553    1552
CQUAD4   500     6       1442    1443    1554    1553
$ ... 1300 like lines cut
$ Elements and Element Properties for region : Shell_H
$ Composite Property Reference Material: Lam_H
$ Composite Material Description :
PCOMP    7                      .0879359 HILL
         2       .183    0.      YES     2       .183    0.      YES
         2       .183    0.      YES     2       .183    0.      YES
         2       .183    0.      YES
$ Pset: "Shell_H" will be imported as: "pcomp.7"
CQUAD4   681     7       1029    1030    1066    1065
CQUAD4   682     7       1030    1031    1067    1066
CQUAD4   683     7       1031    1032    1068    1067
CQUAD4   684     7       1032    1033    1069    1068
CQUAD4   685     7       1033    1034    1070    1069
CQUAD4   686     7       1034    1035    1071    1070
CQUAD4   687     7       1035    1036    1072    1071
CQUAD4   688     7       1036    1037    1073    1072
CQUAD4   689     7       1037    1038    1074    1073
CQUAD4   690     7       1038    1039    1075    1074
CQUAD4   691     7       1039    1040    1076    1075
CQUAD4   692     7       1040    1041    1077    1076
CQUAD4   693     7       1041    1042    1078    1077
CQUAD4   694     7       1042    1043    1079    1078
CQUAD4   695     7       1043    1044    1080    1079
CQUAD4   696     7       1044    1045    1081    1080
CQUAD4   697     7       1045    1046    1082    1081
CQUAD4   698     7       1046    1047    1083    1082
CQUAD4   699     7       1047    1048    1084    1083
CQUAD4   700     7       1048    1049    1085    1084
$ ... 2272 like lines cut
$ Referenced Material Records
$ Material Record : Plie_Tension
$ Description of Material : Date: 24-Nov-21           Time: 12:36:33
MAT8*    1               158.48907       8.9490538       .3156111
*        4.6487918       4.6487918       4.6487918       .00158
*                                                        2.2330778
*        1.4179074       .0463331        .2547264        .0879359
$ Material Record : Plie_Compression
$ Description of Material : Date: 24-Nov-21           Time: 12:36:33
MAT8*    2               140.93211       9.712304        .3563333
*        4.6487918       4.6487918       4.6487918       .00158
*                                                        2.2330778
*        1.4179074       .0463331        .2547264        .0879359
$ Multipoint Constraints of the Entire Model
$ ID conflict : the PATRAN MPC ID was 1
RBE2     4713    10000   3       9342    9343    9344    9345    9346
         9347    9348    9349    9350    9351    9352    9353    9354
         9355    9356    9357    9358    9359    9360    9361    9362
         9363    9364    9365    9366    9367    9368    9369    9370
         9371    9372    9373    9374    9375    9376    9377    9378
         9379    9380    9381    9382    9383    9384    9385    9386
         9387    9388    9389    9390    9391    9392    9393    9394
         9395    9396    9397    9398    9399    9400    9401    9402
         9465    9466    9467    9468    9469    9470    9471    9472
         9473    9474    9475    9476    9477    9478    9479    9480
         9481    9482    9483    9484    9485    9486    9487    9488
         9489    9490    9491    9492    9493    9494    9495    9496
         9497    9498    9499    9500    9501    9502    9503    9504
         9505    9506    9507    9508    9509    9510    9511    9512
         9513    9514    9515    9516    9517    9518    9519    9520
         9521    9522    9523
$ Nodes of the Entire Model
GRID*    1                               -108.7744140625-59.423759460449
*       4.89443969726563
GRID*    2                              -110.29286193848-56.555648803711
*       4.89443969726563
GRID*    3                              -111.73518371582-53.649837493896
*       4.89443969726563
GRID*    4                              -113.10139465332-50.706329345703
*       4.89443969726563
GRID*    5                              -114.39019012451-47.727783203125
*       4.89443969726563
GRID*    6                              -115.60008239746-44.717758178711
*       4.89443969726563
GRID*    7                              -116.73107910156-41.676265716553
*       4.89443969726563
GRID*    8                              -117.78224945068-38.605670928955
*       4.89443969726563
GRID*    9                              -118.75225830078-35.509971618652
*       4.89443969726563
GRID*    10                             -119.64110565186-32.389228820801
*       4.89443969726563
GRID*    11                             -120.44814300537-29.245542526245
*       4.89443969726563
GRID*    12                             -121.17227935791-26.083251953125
*       4.89443969726563
GRID*    13                             -121.81350708008-22.902528762817
*       4.89443969726563
GRID*    14                             -122.37142181396-19.705116271973
*       4.89443969726563
GRID*    15                             -122.84522247314-16.495718002319
*       4.89443969726563
GRID*    16                             -123.23490142822-13.274597167969
*       4.89443969726563
GRID*    17                             -123.54023742676-10.043206214905
*       4.89443969726563
GRID*    18                             -123.76077270508-6.8064746856689
*       4.89443969726563
GRID*    19                             -123.89652252197-3.5648078918457
*       4.89443969726563
GRID*    20                             -123.94738769531-.31938707828522
*       4.89443969726563
$ ... 18472 like lines cut
GRID     10000           0.      0.      300.
$ Loads for Load Case : Default
SPCADD   2       1       3
LOAD     2       1.      1.      1
$ Displacement Constraints of Load Set : D_3
SPC1     1       3       243     THRU    363
SPC1     1       3       607     THRU    725
$ Displacement Constraints of Load Set : D_12456
SPC1     3       12456   261
$ Deform Body Contact LBC set: H1C
BCBODY1  1               3D      DEFORM  6
BSURF    6       681     682     683     684     685     686     687
         688     689     690     691     692     693     694     695
         696     697     698     699     700     701     702     703
         704     705     706     707     708     709     710     711
         712     713     714     715     716     717     718     719
         720     721     722     723     724     725     726     727
         728     729     730     731     732     733     734     735
         736     737     738     739     740     741     742     743
         744     745     746     747     748     749     750     751
         752     753     754     755     756     757     758     759
         760     761     762     763     764     765     766     767
         768     769     770     771     772     773     774     775
         776     777     778     779     780     781     782     783
         1992    1993    1994    1995    1996    1997    1998    1999
         2000    2001    2002    2003    2004    2005    2006    2007
         2008    2009    2010    2011    2012    2013    2014    2015
         2016    2017    2018    2019    2020    2021    2022    2023
         2024    2025    2026    2027    2028    2029    2030    2031
         2032    2033    2034    2035    2036    2037    2038    2039
         2040    2041    2042    2043    2044    2045    2046    2047
         2048    2049    2050    2051    2052    2053    2054    2055
$ ... 134 like lines cut
$ Deform Body Contact LBC set: H2C
BCBODY1  2               3D      DEFORM  7
BSURF    7       784     785     786     787     788     789     790
         791     792     793     794     795     796     797     798
         799     800     801     802     803     804     805     806
         807     808     809     810     811     812     813     814
         815     816     817     818     819     820     821     822
         823     824     825     826     827     828     829     830
         831     832     833     834     835     836     837     838
         839     840     841     842     843     844     845     846
         847     848     849     850     851     852     853     854
         855     856     857     858     859     860     861     862
         863     864     865     866     867     868     869     870
         871     3125    3126    3127    3128    3129    3130    3131
         3132    3133    3134    3135    3136    3137    3138    3139
         3140    3141    3142    3143    3144    3145    3146    3147
         3148    3149    3150    3151    3152    3153    3154    3155
         3156    3157    3158    3159    3160    3161    3162    3163
         3164    3165    3166    3167    3168    3169    3170    3171
         3172    3173    3174    3175    3176    3177    3178    3179
         3180    3181    3182    3183    3184    3185    3186    3187
         3188    3189    3190    3191    3192    3193    3194    3195
         3196    3197    3198    3199    3200    3201    3202    3203
$ ... 112 like lines cut
$ Deform Body Contact LBC set: R1C
BCBODY1  3               3D      DEFORM  8
BSURF    8       4093    4094    4095    4096    4097    4098    4099
         4100    4101    4102    4103    4104    4105    4106    4107
         4108    4109    4110    4111    4112    4113    4114    4115
         4116    4117    4118    4119    4120    4121    4122    4123
         4124    4125    4126    4127    4128    4129    4130    4131
         4132    4133    4134    4135    4136    4137    4138    4139
         4140    4141    4142    4143    4144    4145    4146    4147
         4148    4149    4150    4151    4152    4153    4154    4155
         4156    4157    4158    4159    4160    4161    4162    4163
         4164    4165    4166    4167    4168    4169    4170    4171
         4172    4173    4174    4175    4176    4177    4178    4179
         4180    4181    4182    4183    4184    4185    4186    4187
         4188    4189    4190    4191    4192    4193    4194    4195
         4196    4197    4198    4199    4200    4201    4202    4203
         4204    4205    4206    4207    4208    4209    4210    4211
         4212    4213    4214    4215    4216    4217    4218    4219
         4220    4221    4222    4223    4224    4225    4226    4227
         4228    4229    4230    4231    4232    4233    4234    4235
         4236    4237    4238    4239    4240    4241    4242    4243
         4244    4245    4246    4247    4248    4249    4250    4251
         4252    4253    4254    4255    4256    4257    4258    4259
$ ... 42 like lines cut
$ Deform Body Contact LBC set: RiC
BCBODY1  4               3D      DEFORM  3
BSURF    3       1       2       3       4       5       6       7
         8       9       10      11      12      13      14      15
         16      17      18      19      20      21      22      23
         24      25      26      27      28      29      30      31
         32      33      34      35      36      37      38      39
         40      41      42      43      44      45      46      47
         48      49      50      51      52      53      54      55
         56      57      58      59      60      61      62      63
         64      65      66      67      68      69      70      71
         72      73      74      75      76      77      78      79
         80      81      82      83      84      85      86      87
         88      89      90      91      92      93      94      95
         96      97      98      99      100     101     102     103
         104     105     106     107     108     109     110     111
         112     113     114     115     116     117     118     119
         120     121     122     123     124     125     126     127
         128     129     130     131     132     133     134     135
         136     137     138     139     140     141     142     143
         144     145     146     147     148     149     150     151
         152     153     154     155     156     157     158     159
         160     161     162     163     164     165     166     167
$ ... 40 like lines cut
$ Deform Body Contact LBC set: RsC
BCBODY1  5               3D      DEFORM  9
BSURF    9       4593    4594    4595    4596    4597    4598    4599
         4600    4601    4602    4603    4604    4605    4606    4607
         4608    4609    4610    4611    4612    4613    4614    4615
         4616    4617    4618    4619    4620    4621    4622    4623
         4624    4625    4626    4627    4628    4629    4630    4631
         4632    4633    4634    4635    4636    4637    4638    4639
         4640    4641    4642    4643    4644    4645    4646    4647
         4648    4649    4650    4651    4652    4653    4654    4655
         4656    4657    4658    4659    4660    4661    4662    4663
         4664    4665    4666    4667    4668    4669    4670    4671
         4672    4673    4674    4675    4676    4677    4678    4679
         4680    4681    4682    4683    4684    4685    4686    4687
         4688    4689    4690    4691    4692    4693    4694    4695
         4696    4697    4698    4699    4700    4701    4702    4703
         4704    4705    4706    4707    4708    4709    4710    4711
         4712
$ Deform Body Contact LBC set: VC
BCBODY1  6               3D      DEFORM  4
BSURF    4       481     482     483     484     485     486     487
         488     489     490     491     492     493     494     495
         496     497     498     499     500     501     502     503
         504     505     506     507     508     509     510     511
         512     513     514     515     516     517     518     519
         520     521     522     523     524     525     526     527
         528     529     530     531     532     533     534     535
         536     537     538     539     540     541     542     543
         544     545     546     547     548     549     550     551
         552     553     554     555     556     557     558     559
         560     561     562     563     564     565     566     567
         568     569     570     571     572     573     574     575
         576     577     578     579     580     581     582     583
         584     585     586     587     588     589     590     591
         592     593     594     595     596     597     598     599
         600     601     602     603     604     605     606     607
         608     609     610     611     612     613     614     615
         616     617     618     619     620     621     622     623
         624     625     626     627     628     629     630     631
         632     633     634     635     636     637     638     639
         640     641     642     643     644     645     646     647
$ ... 145 like lines cut
$ Nodal Forces of Load Set : L
FORCE    1       10000   0       15.     0.      0.      -1.
$ Referenced Coordinate Frames
ENDDATA cc344932
